
---------- Begin Simulation Statistics ----------
final_tick                                36903858500                       # Number of ticks from beginning of simulation (restored from checkpoints and never reset)
host_inst_rate                                  63778                       # Simulator instruction rate (inst/s)
host_mem_usage                                8811712                       # Number of bytes of host memory used
host_op_rate                                   101047                       # Simulator op (including micro ops) rate (op/s)
host_seconds                                   172.47                       # Real time elapsed on the host
host_tick_rate                              207976414                       # Simulator tick rate (ticks/s)
sim_freq                                 1000000000000                       # Frequency of simulated ticks
sim_insts                                    11000002                       # Number of instructions simulated
sim_ops                                      17427911                       # Number of ops (including micro ops) simulated
sim_seconds                                  0.035871                       # Number of seconds simulated
sim_ticks                                 35870525500                       # Number of ticks simulated
system.cpu.committedInsts                           0                       # Number of instructions committed
system.cpu.committedOps                             0                       # Number of ops (including micro ops) committed
system.cpu.idle_fraction                            0                       # Percentage of idle cycles
system.cpu.not_idle_fraction                        1                       # Percentage of non-idle cycles
system.cpu.numCycles                                0                       # number of cpu cycles simulated
system.cpu.numWorkItemsCompleted                    0                       # number of work items this cpu completed
system.cpu.numWorkItemsStarted                      0                       # number of work items this cpu started
system.cpu.num_busy_cycles                          0                       # Number of busy cycles
system.cpu.num_conditional_control_insts            0                       # number of instructions that are conditional controls
system.cpu.num_fp_alu_accesses                      0                       # Number of float alu accesses
system.cpu.num_fp_insts                             0                       # number of float instructions
system.cpu.num_fp_register_reads                    0                       # number of times the floating registers were read
system.cpu.num_fp_register_writes                   0                       # number of times the floating registers were written
system.cpu.num_func_calls                           0                       # number of times a function call or return occured
system.cpu.num_idle_cycles                          0                       # Number of idle cycles
system.cpu.num_int_alu_accesses                     0                       # Number of integer alu accesses
system.cpu.num_int_insts                            0                       # number of integer instructions
system.cpu.num_int_register_reads                   0                       # number of times the integer registers were read
system.cpu.num_int_register_writes                  0                       # number of times the integer registers were written
system.cpu.num_load_insts                           0                       # Number of load instructions
system.cpu.num_mem_refs                             0                       # number of memory refs
system.cpu.num_store_insts                          0                       # Number of store instructions
system.cpu.num_vec_alu_accesses                     0                       # Number of vector alu accesses
system.cpu.num_vec_insts                            0                       # number of vector instructions
system.cpu.num_vec_register_reads                   0                       # number of times the vector registers were read
system.cpu.num_vec_register_writes                  0                       # number of times the vector registers were written
system.cpu.op_class::No_OpClass                     0                       # Class of executed instruction
system.cpu.op_class::IntAlu                         0                       # Class of executed instruction
system.cpu.op_class::IntMult                        0                       # Class of executed instruction
system.cpu.op_class::IntDiv                         0                       # Class of executed instruction
system.cpu.op_class::FloatAdd                       0                       # Class of executed instruction
system.cpu.op_class::FloatCmp                       0                       # Class of executed instruction
system.cpu.op_class::FloatCvt                       0                       # Class of executed instruction
system.cpu.op_class::FloatMult                      0                       # Class of executed instruction
system.cpu.op_class::FloatMultAcc                   0                       # Class of executed instruction
system.cpu.op_class::FloatDiv                       0                       # Class of executed instruction
system.cpu.op_class::FloatMisc                      0                       # Class of executed instruction
system.cpu.op_class::FloatSqrt                      0                       # Class of executed instruction
system.cpu.op_class::SimdAdd                        0                       # Class of executed instruction
system.cpu.op_class::SimdAddAcc                     0                       # Class of executed instruction
system.cpu.op_class::SimdAlu                        0                       # Class of executed instruction
system.cpu.op_class::SimdCmp                        0                       # Class of executed instruction
system.cpu.op_class::SimdCvt                        0                       # Class of executed instruction
system.cpu.op_class::SimdMisc                       0                       # Class of executed instruction
system.cpu.op_class::SimdMult                       0                       # Class of executed instruction
system.cpu.op_class::SimdMultAcc                    0                       # Class of executed instruction
system.cpu.op_class::SimdShift                      0                       # Class of executed instruction
system.cpu.op_class::SimdShiftAcc                   0                       # Class of executed instruction
system.cpu.op_class::SimdDiv                        0                       # Class of executed instruction
system.cpu.op_class::SimdSqrt                       0                       # Class of executed instruction
system.cpu.op_class::SimdFloatAdd                   0                       # Class of executed instruction
system.cpu.op_class::SimdFloatAlu                   0                       # Class of executed instruction
system.cpu.op_class::SimdFloatCmp                   0                       # Class of executed instruction
system.cpu.op_class::SimdFloatCvt                   0                       # Class of executed instruction
system.cpu.op_class::SimdFloatDiv                   0                       # Class of executed instruction
system.cpu.op_class::SimdFloatMisc                  0                       # Class of executed instruction
system.cpu.op_class::SimdFloatMult                  0                       # Class of executed instruction
system.cpu.op_class::SimdFloatMultAcc               0                       # Class of executed instruction
system.cpu.op_class::SimdFloatSqrt                  0                       # Class of executed instruction
system.cpu.op_class::SimdReduceAdd                  0                       # Class of executed instruction
system.cpu.op_class::SimdReduceAlu                  0                       # Class of executed instruction
system.cpu.op_class::SimdReduceCmp                  0                       # Class of executed instruction
system.cpu.op_class::SimdFloatReduceAdd             0                       # Class of executed instruction
system.cpu.op_class::SimdFloatReduceCmp             0                       # Class of executed instruction
system.cpu.op_class::SimdAes                        0                       # Class of executed instruction
system.cpu.op_class::SimdAesMix                     0                       # Class of executed instruction
system.cpu.op_class::SimdSha1Hash                   0                       # Class of executed instruction
system.cpu.op_class::SimdSha1Hash2                  0                       # Class of executed instruction
system.cpu.op_class::SimdSha256Hash                 0                       # Class of executed instruction
system.cpu.op_class::SimdSha256Hash2                0                       # Class of executed instruction
system.cpu.op_class::SimdShaSigma2                  0                       # Class of executed instruction
system.cpu.op_class::SimdShaSigma3                  0                       # Class of executed instruction
system.cpu.op_class::SimdPredAlu                    0                       # Class of executed instruction
system.cpu.op_class::MemRead                        0                       # Class of executed instruction
system.cpu.op_class::MemWrite                       0                       # Class of executed instruction
system.cpu.op_class::FloatMemRead                   0                       # Class of executed instruction
system.cpu.op_class::FloatMemWrite                  0                       # Class of executed instruction
system.cpu.op_class::IprAccess                      0                       # Class of executed instruction
system.cpu.op_class::InstPrefetch                   0                       # Class of executed instruction
system.cpu.op_class::total                          0                       # Class of executed instruction
system.cpu.workload.numSyscalls                     7                       # Number of system calls
system.membus.snoop_filter.hit_multi_requests            0                       # Number of requests hitting in the snoop filter with multiple (>1) holders of the requested data.
system.membus.snoop_filter.hit_multi_snoops            0                       # Number of snoops hitting in the snoop filter with multiple (>1) holders of the requested data.
system.membus.snoop_filter.hit_single_requests       358128                       # Number of requests hitting in the snoop filter with a single holder of the requested data.
system.membus.snoop_filter.hit_single_snoops            0                       # Number of snoops hitting in the snoop filter with a single holder of the requested data.
system.membus.snoop_filter.tot_requests        720376                       # Total number of requests made to the snoop filter.
system.membus.snoop_filter.tot_snoops               0                       # Total number of snoops made to the snoop filter.
system.switch_cpus.cc_regfile_reads          19037050                       # number of cc regfile reads
system.switch_cpus.cc_regfile_writes         19186908                       # number of cc regfile writes
system.switch_cpus.committedInsts            10000001                       # Number of Instructions Simulated
system.switch_cpus.committedOps              15621644                       # Number of Ops (including micro ops) Simulated
system.switch_cpus.cpi                       7.174104                       # CPI: Cycles Per Instruction
system.switch_cpus.cpi_total                 7.174104                       # CPI: Total CPI of All Threads
system.switch_cpus.fp_regfile_reads            435299                       # number of floating regfile reads
system.switch_cpus.fp_regfile_writes           456072                       # number of floating regfile writes
system.switch_cpus.idleCycles                   37233                       # Total number of cycles that the CPU has spent unscheduled due to idling
system.switch_cpus.iew.branchMispredicts       261082                       # Number of branch mispredicts detected at execute
system.switch_cpus.iew.exec_branches          3765215                       # Number of branches executed
system.switch_cpus.iew.exec_nop                     0                       # number of nop insts executed
system.switch_cpus.iew.exec_rate             0.557458                       # Inst execution rate
system.switch_cpus.iew.exec_refs              8242792                       # number of memory reference insts executed
system.switch_cpus.iew.exec_stores            3694618                       # Number of stores executed
system.switch_cpus.iew.exec_swp                     0                       # number of swp insts executed
system.switch_cpus.iew.iewBlockCycles         3487074                       # Number of cycles IEW is blocking
system.switch_cpus.iew.iewDispLoadInsts       4948483                       # Number of dispatched load instructions
system.switch_cpus.iew.iewDispNonSpecInsts           31                       # Number of dispatched non-speculative instructions
system.switch_cpus.iew.iewDispSquashedInsts        47393                       # Number of squashed instructions skipped by dispatch
system.switch_cpus.iew.iewDispStoreInsts      4124848                       # Number of dispatched store instructions
system.switch_cpus.iew.iewDispatchedInsts     44876504                       # Number of instructions dispatched to IQ
system.switch_cpus.iew.iewExecLoadInsts       4548174                       # Number of load instructions executed
system.switch_cpus.iew.iewExecSquashedInsts       508696                       # Number of squashed instructions skipped in execute
system.switch_cpus.iew.iewExecutedInsts      39992595                       # Number of executed instructions
system.switch_cpus.iew.iewIQFullEvents           1530                       # Number of times the IQ has become full, causing a stall
system.switch_cpus.iew.iewIdleCycles                0                       # Number of cycles IEW is idle
system.switch_cpus.iew.iewLSQFullEvents         32077                       # Number of times the LSQ has become full, causing a stall
system.switch_cpus.iew.iewSquashCycles         336650                       # Number of cycles IEW is squashing
system.switch_cpus.iew.iewUnblockCycles         32963                       # Number of cycles IEW is unblocking
system.switch_cpus.iew.memOrderViolationEvents         1595                       # Number of memory order violations
system.switch_cpus.iew.predictedNotTakenIncorrect       100248                       # Number of branches that were predicted not taken incorrectly
system.switch_cpus.iew.predictedTakenIncorrect       160834                       # Number of branches that were predicted taken incorrectly
system.switch_cpus.iew.wb_consumers          47562826                       # num instructions consuming a value
system.switch_cpus.iew.wb_count              37650105                       # cumulative count of insts written-back
system.switch_cpus.iew.wb_fanout             0.633829                       # average fanout of values written-back
system.switch_cpus.iew.wb_producers          30146709                       # num instructions producing a value
system.switch_cpus.iew.wb_rate               0.524806                       # insts written-back per cycle
system.switch_cpus.iew.wb_sent               39885298                       # cumulative count of insts sent to commit
system.switch_cpus.int_regfile_reads         58036683                       # number of integer regfile reads
system.switch_cpus.int_regfile_writes        32005171                       # number of integer regfile writes
system.switch_cpus.ipc                       0.139390                       # IPC: Instructions Per Cycle
system.switch_cpus.ipc_total                 0.139390                       # IPC: Total IPC of All Threads
system.switch_cpus.iq.FU_type_0::No_OpClass       223931      0.55%      0.55% # Type of FU issued
system.switch_cpus.iq.FU_type_0::IntAlu      31532052     77.85%     78.41% # Type of FU issued
system.switch_cpus.iq.FU_type_0::IntMult       262346      0.65%     79.06% # Type of FU issued
system.switch_cpus.iq.FU_type_0::IntDiv             7      0.00%     79.06% # Type of FU issued
system.switch_cpus.iq.FU_type_0::FloatAdd        35239      0.09%     79.14% # Type of FU issued
system.switch_cpus.iq.FU_type_0::FloatCmp            0      0.00%     79.14% # Type of FU issued
system.switch_cpus.iq.FU_type_0::FloatCvt            0      0.00%     79.14% # Type of FU issued
system.switch_cpus.iq.FU_type_0::FloatMult            0      0.00%     79.14% # Type of FU issued
system.switch_cpus.iq.FU_type_0::FloatMultAcc            0      0.00%     79.14% # Type of FU issued
system.switch_cpus.iq.FU_type_0::FloatDiv            0      0.00%     79.14% # Type of FU issued
system.switch_cpus.iq.FU_type_0::FloatMisc            0      0.00%     79.14% # Type of FU issued
system.switch_cpus.iq.FU_type_0::FloatSqrt            0      0.00%     79.14% # Type of FU issued
system.switch_cpus.iq.FU_type_0::SimdAdd            0      0.00%     79.14% # Type of FU issued
system.switch_cpus.iq.FU_type_0::SimdAddAcc            0      0.00%     79.14% # Type of FU issued
system.switch_cpus.iq.FU_type_0::SimdAlu           98      0.00%     79.14% # Type of FU issued
system.switch_cpus.iq.FU_type_0::SimdCmp            0      0.00%     79.14% # Type of FU issued
system.switch_cpus.iq.FU_type_0::SimdCvt           16      0.00%     79.14% # Type of FU issued
system.switch_cpus.iq.FU_type_0::SimdMisc        18073      0.04%     79.19% # Type of FU issued
system.switch_cpus.iq.FU_type_0::SimdMult            0      0.00%     79.19% # Type of FU issued
system.switch_cpus.iq.FU_type_0::SimdMultAcc            0      0.00%     79.19% # Type of FU issued
system.switch_cpus.iq.FU_type_0::SimdShift            0      0.00%     79.19% # Type of FU issued
system.switch_cpus.iq.FU_type_0::SimdShiftAcc            0      0.00%     79.19% # Type of FU issued
system.switch_cpus.iq.FU_type_0::SimdDiv            0      0.00%     79.19% # Type of FU issued
system.switch_cpus.iq.FU_type_0::SimdSqrt            0      0.00%     79.19% # Type of FU issued
system.switch_cpus.iq.FU_type_0::SimdFloatAdd            0      0.00%     79.19% # Type of FU issued
system.switch_cpus.iq.FU_type_0::SimdFloatAlu            0      0.00%     79.19% # Type of FU issued
system.switch_cpus.iq.FU_type_0::SimdFloatCmp            0      0.00%     79.19% # Type of FU issued
system.switch_cpus.iq.FU_type_0::SimdFloatCvt            0      0.00%     79.19% # Type of FU issued
system.switch_cpus.iq.FU_type_0::SimdFloatDiv            0      0.00%     79.19% # Type of FU issued
system.switch_cpus.iq.FU_type_0::SimdFloatMisc            0      0.00%     79.19% # Type of FU issued
system.switch_cpus.iq.FU_type_0::SimdFloatMult            0      0.00%     79.19% # Type of FU issued
system.switch_cpus.iq.FU_type_0::SimdFloatMultAcc            0      0.00%     79.19% # Type of FU issued
system.switch_cpus.iq.FU_type_0::SimdFloatSqrt            0      0.00%     79.19% # Type of FU issued
system.switch_cpus.iq.FU_type_0::SimdReduceAdd            0      0.00%     79.19% # Type of FU issued
system.switch_cpus.iq.FU_type_0::SimdReduceAlu            0      0.00%     79.19% # Type of FU issued
system.switch_cpus.iq.FU_type_0::SimdReduceCmp            0      0.00%     79.19% # Type of FU issued
system.switch_cpus.iq.FU_type_0::SimdFloatReduceAdd            0      0.00%     79.19% # Type of FU issued
system.switch_cpus.iq.FU_type_0::SimdFloatReduceCmp            0      0.00%     79.19% # Type of FU issued
system.switch_cpus.iq.FU_type_0::SimdAes            0      0.00%     79.19% # Type of FU issued
system.switch_cpus.iq.FU_type_0::SimdAesMix            0      0.00%     79.19% # Type of FU issued
system.switch_cpus.iq.FU_type_0::SimdSha1Hash            0      0.00%     79.19% # Type of FU issued
system.switch_cpus.iq.FU_type_0::SimdSha1Hash2            0      0.00%     79.19% # Type of FU issued
system.switch_cpus.iq.FU_type_0::SimdSha256Hash            0      0.00%     79.19% # Type of FU issued
system.switch_cpus.iq.FU_type_0::SimdSha256Hash2            0      0.00%     79.19% # Type of FU issued
system.switch_cpus.iq.FU_type_0::SimdShaSigma2            0      0.00%     79.19% # Type of FU issued
system.switch_cpus.iq.FU_type_0::SimdShaSigma3            0      0.00%     79.19% # Type of FU issued
system.switch_cpus.iq.FU_type_0::SimdPredAlu            0      0.00%     79.19% # Type of FU issued
system.switch_cpus.iq.FU_type_0::MemRead      4195849     10.36%     89.55% # Type of FU issued
system.switch_cpus.iq.FU_type_0::MemWrite      3377414      8.34%     97.89% # Type of FU issued
system.switch_cpus.iq.FU_type_0::FloatMemRead       440078      1.09%     98.97% # Type of FU issued
system.switch_cpus.iq.FU_type_0::FloatMemWrite       416192      1.03%    100.00% # Type of FU issued
system.switch_cpus.iq.FU_type_0::IprAccess            0      0.00%    100.00% # Type of FU issued
system.switch_cpus.iq.FU_type_0::InstPrefetch            0      0.00%    100.00% # Type of FU issued
system.switch_cpus.iq.FU_type_0::total       40501295                       # Type of FU issued
system.switch_cpus.iq.fp_alu_accesses         1061495                       # Number of floating point alu accesses
system.switch_cpus.iq.fp_inst_queue_reads      1974584                       # Number of floating instruction queue reads
system.switch_cpus.iq.fp_inst_queue_wakeup_accesses       861402                       # Number of floating instruction queue wakeup accesses
system.switch_cpus.iq.fp_inst_queue_writes      1809190                       # Number of floating instruction queue writes
system.switch_cpus.iq.fu_busy_cnt              476586                       # FU busy when requested
system.switch_cpus.iq.fu_busy_rate           0.011767                       # FU busy rate (busy events/executed inst)
system.switch_cpus.iq.fu_full::No_OpClass            0      0.00%      0.00% # attempts to use FU when none available
system.switch_cpus.iq.fu_full::IntAlu          239677     50.29%     50.29% # attempts to use FU when none available
system.switch_cpus.iq.fu_full::IntMult              0      0.00%     50.29% # attempts to use FU when none available
system.switch_cpus.iq.fu_full::IntDiv               0      0.00%     50.29% # attempts to use FU when none available
system.switch_cpus.iq.fu_full::FloatAdd             0      0.00%     50.29% # attempts to use FU when none available
system.switch_cpus.iq.fu_full::FloatCmp             0      0.00%     50.29% # attempts to use FU when none available
system.switch_cpus.iq.fu_full::FloatCvt             0      0.00%     50.29% # attempts to use FU when none available
system.switch_cpus.iq.fu_full::FloatMult            0      0.00%     50.29% # attempts to use FU when none available
system.switch_cpus.iq.fu_full::FloatMultAcc            0      0.00%     50.29% # attempts to use FU when none available
system.switch_cpus.iq.fu_full::FloatDiv             0      0.00%     50.29% # attempts to use FU when none available
system.switch_cpus.iq.fu_full::FloatMisc            0      0.00%     50.29% # attempts to use FU when none available
system.switch_cpus.iq.fu_full::FloatSqrt            0      0.00%     50.29% # attempts to use FU when none available
system.switch_cpus.iq.fu_full::SimdAdd              0      0.00%     50.29% # attempts to use FU when none available
system.switch_cpus.iq.fu_full::SimdAddAcc            0      0.00%     50.29% # attempts to use FU when none available
system.switch_cpus.iq.fu_full::SimdAlu              1      0.00%     50.29% # attempts to use FU when none available
system.switch_cpus.iq.fu_full::SimdCmp              0      0.00%     50.29% # attempts to use FU when none available
system.switch_cpus.iq.fu_full::SimdCvt              0      0.00%     50.29% # attempts to use FU when none available
system.switch_cpus.iq.fu_full::SimdMisc             0      0.00%     50.29% # attempts to use FU when none available
system.switch_cpus.iq.fu_full::SimdMult             0      0.00%     50.29% # attempts to use FU when none available
system.switch_cpus.iq.fu_full::SimdMultAcc            0      0.00%     50.29% # attempts to use FU when none available
system.switch_cpus.iq.fu_full::SimdShift            0      0.00%     50.29% # attempts to use FU when none available
system.switch_cpus.iq.fu_full::SimdShiftAcc            0      0.00%     50.29% # attempts to use FU when none available
system.switch_cpus.iq.fu_full::SimdDiv              0      0.00%     50.29% # attempts to use FU when none available
system.switch_cpus.iq.fu_full::SimdSqrt             0      0.00%     50.29% # attempts to use FU when none available
system.switch_cpus.iq.fu_full::SimdFloatAdd            0      0.00%     50.29% # attempts to use FU when none available
system.switch_cpus.iq.fu_full::SimdFloatAlu            0      0.00%     50.29% # attempts to use FU when none available
system.switch_cpus.iq.fu_full::SimdFloatCmp            0      0.00%     50.29% # attempts to use FU when none available
system.switch_cpus.iq.fu_full::SimdFloatCvt            0      0.00%     50.29% # attempts to use FU when none available
system.switch_cpus.iq.fu_full::SimdFloatDiv            0      0.00%     50.29% # attempts to use FU when none available
system.switch_cpus.iq.fu_full::SimdFloatMisc            0      0.00%     50.29% # attempts to use FU when none available
system.switch_cpus.iq.fu_full::SimdFloatMult            0      0.00%     50.29% # attempts to use FU when none available
system.switch_cpus.iq.fu_full::SimdFloatMultAcc            0      0.00%     50.29% # attempts to use FU when none available
system.switch_cpus.iq.fu_full::SimdFloatSqrt            0      0.00%     50.29% # attempts to use FU when none available
system.switch_cpus.iq.fu_full::SimdReduceAdd            0      0.00%     50.29% # attempts to use FU when none available
system.switch_cpus.iq.fu_full::SimdReduceAlu            0      0.00%     50.29% # attempts to use FU when none available
system.switch_cpus.iq.fu_full::SimdReduceCmp            0      0.00%     50.29% # attempts to use FU when none available
system.switch_cpus.iq.fu_full::SimdFloatReduceAdd            0      0.00%     50.29% # attempts to use FU when none available
system.switch_cpus.iq.fu_full::SimdFloatReduceCmp            0      0.00%     50.29% # attempts to use FU when none available
system.switch_cpus.iq.fu_full::SimdAes              0      0.00%     50.29% # attempts to use FU when none available
system.switch_cpus.iq.fu_full::SimdAesMix            0      0.00%     50.29% # attempts to use FU when none available
system.switch_cpus.iq.fu_full::SimdSha1Hash            0      0.00%     50.29% # attempts to use FU when none available
system.switch_cpus.iq.fu_full::SimdSha1Hash2            0      0.00%     50.29% # attempts to use FU when none available
system.switch_cpus.iq.fu_full::SimdSha256Hash            0      0.00%     50.29% # attempts to use FU when none available
system.switch_cpus.iq.fu_full::SimdSha256Hash2            0      0.00%     50.29% # attempts to use FU when none available
system.switch_cpus.iq.fu_full::SimdShaSigma2            0      0.00%     50.29% # attempts to use FU when none available
system.switch_cpus.iq.fu_full::SimdShaSigma3            0      0.00%     50.29% # attempts to use FU when none available
system.switch_cpus.iq.fu_full::SimdPredAlu            0      0.00%     50.29% # attempts to use FU when none available
system.switch_cpus.iq.fu_full::MemRead          18809      3.95%     54.24% # attempts to use FU when none available
system.switch_cpus.iq.fu_full::MemWrite         67458     14.15%     68.39% # attempts to use FU when none available
system.switch_cpus.iq.fu_full::FloatMemRead       122617     25.73%     94.12% # attempts to use FU when none available
system.switch_cpus.iq.fu_full::FloatMemWrite        28024      5.88%    100.00% # attempts to use FU when none available
system.switch_cpus.iq.fu_full::IprAccess            0      0.00%    100.00% # attempts to use FU when none available
system.switch_cpus.iq.fu_full::InstPrefetch            0      0.00%    100.00% # attempts to use FU when none available
system.switch_cpus.iq.int_alu_accesses       39692455                       # Number of integer alu accesses
system.switch_cpus.iq.int_inst_queue_reads    151226416                       # Number of integer instruction queue reads
system.switch_cpus.iq.int_inst_queue_wakeup_accesses     36788703                       # Number of integer instruction queue wakeup accesses
system.switch_cpus.iq.int_inst_queue_writes     72323649                       # Number of integer instruction queue writes
system.switch_cpus.iq.iqInstsAdded           44875591                       # Number of instructions added to the IQ (excludes non-spec)
system.switch_cpus.iq.iqInstsIssued          40501295                       # Number of instructions issued
system.switch_cpus.iq.iqNonSpecInstsAdded          913                       # Number of non-speculative instructions added to the IQ
system.switch_cpus.iq.iqSquashedInstsExamined     29254838                       # Number of squashed instructions iterated over during squash; mainly for profiling
system.switch_cpus.iq.iqSquashedInstsIssued        18010                       # Number of squashed instructions issued
system.switch_cpus.iq.iqSquashedNonSpecRemoved          788                       # Number of squashed non-spec instructions that were removed
system.switch_cpus.iq.iqSquashedOperandsExamined     22749695                       # Number of squashed operands that are examined and possibly removed from graph
system.switch_cpus.iq.issued_per_cycle::samples     71703818                       # Number of insts issued each cycle
system.switch_cpus.iq.issued_per_cycle::mean     0.564842                       # Number of insts issued each cycle
system.switch_cpus.iq.issued_per_cycle::stdev     1.590581                       # Number of insts issued each cycle
system.switch_cpus.iq.issued_per_cycle::underflows            0      0.00%      0.00% # Number of insts issued each cycle
system.switch_cpus.iq.issued_per_cycle::0     61689273     86.03%     86.03% # Number of insts issued each cycle
system.switch_cpus.iq.issued_per_cycle::1      1136752      1.59%     87.62% # Number of insts issued each cycle
system.switch_cpus.iq.issued_per_cycle::2      1231586      1.72%     89.34% # Number of insts issued each cycle
system.switch_cpus.iq.issued_per_cycle::3      2518124      3.51%     92.85% # Number of insts issued each cycle
system.switch_cpus.iq.issued_per_cycle::4      1046762      1.46%     94.31% # Number of insts issued each cycle
system.switch_cpus.iq.issued_per_cycle::5       987399      1.38%     95.69% # Number of insts issued each cycle
system.switch_cpus.iq.issued_per_cycle::6      2019788      2.82%     98.50% # Number of insts issued each cycle
system.switch_cpus.iq.issued_per_cycle::7       488844      0.68%     99.18% # Number of insts issued each cycle
system.switch_cpus.iq.issued_per_cycle::8       585290      0.82%    100.00% # Number of insts issued each cycle
system.switch_cpus.iq.issued_per_cycle::overflows            0      0.00%    100.00% # Number of insts issued each cycle
system.switch_cpus.iq.issued_per_cycle::min_value            0                       # Number of insts issued each cycle
system.switch_cpus.iq.issued_per_cycle::max_value            8                       # Number of insts issued each cycle
system.switch_cpus.iq.issued_per_cycle::total     71703818                       # Number of insts issued each cycle
system.switch_cpus.iq.rate                   0.564548                       # Inst issue rate
system.switch_cpus.iq.vec_alu_accesses              0                       # Number of vector alu accesses
system.switch_cpus.iq.vec_inst_queue_reads            0                       # Number of vector instruction queue reads
system.switch_cpus.iq.vec_inst_queue_wakeup_accesses            0                       # Number of vector instruction queue wakeup accesses
system.switch_cpus.iq.vec_inst_queue_writes            0                       # Number of vector instruction queue writes
system.switch_cpus.memDep0.conflictingLoads       419545                       # Number of conflicting loads.
system.switch_cpus.memDep0.conflictingStores        79924                       # Number of conflicting stores.
system.switch_cpus.memDep0.insertedLoads      4948483                       # Number of loads inserted to the mem dependence unit.
system.switch_cpus.memDep0.insertedStores      4124848                       # Number of stores inserted to the mem dependence unit.
system.switch_cpus.misc_regfile_reads        16147325                       # number of misc regfile reads
system.switch_cpus.numCycles                 71741051                       # number of cpu cycles simulated
system.switch_cpus.numWorkItemsCompleted            0                       # number of work items this cpu completed
system.switch_cpus.numWorkItemsStarted              0                       # number of work items this cpu started
system.switch_cpus.timesIdled                     302                       # Number of times that the entire CPU went into an idle state and unscheduled itself
system.tol2bus.snoop_filter.hit_multi_requests            2                       # Number of requests hitting in the snoop filter with multiple (>1) holders of the requested data.
system.tol2bus.snoop_filter.hit_multi_snoops            0                       # Number of snoops hitting in the snoop filter with multiple (>1) holders of the requested data.
system.tol2bus.snoop_filter.hit_single_requests       367246                       # Number of requests hitting in the snoop filter with a single holder of the requested data.
system.tol2bus.snoop_filter.hit_single_snoops          166                       # Number of snoops hitting in the snoop filter with a single holder of the requested data.
system.tol2bus.snoop_filter.tot_requests       734653                       # Total number of requests made to the snoop filter.
system.tol2bus.snoop_filter.tot_snoops            166                       # Total number of snoops made to the snoop filter.
system.clk_domain.clock                          1000                       # Clock period in ticks
system.cpu.branchPred.lookups                       0                       # Number of BP lookups
system.cpu.branchPred.condPredicted                 0                       # Number of conditional branches predicted
system.cpu.branchPred.condIncorrect                 0                       # Number of conditional branches incorrect
system.cpu.branchPred.BTBLookups                    0                       # Number of BTB lookups
system.cpu.branchPred.BTBHits                       0                       # Number of BTB hits
system.cpu.branchPred.BTBHitPct                   nan                       # BTB Hit Percentage
system.cpu.branchPred.RASUsed                       0                       # Number of times the RAS was used to get a target.
system.cpu.branchPred.RASIncorrect                  0                       # Number of incorrect RAS predictions.
system.cpu.branchPred.indirectLookups               0                       # Number of indirect predictor lookups.
system.cpu.branchPred.indirectHits                  0                       # Number of indirect target hits.
system.cpu.branchPred.indirectMisses                0                       # Number of indirect misses.
system.cpu.branchPred.indirectMispredicted            0                       # Number of mispredicted indirect branches.
system.cpu.dcache.demand_hits::.switch_cpus.data      4832433                       # number of demand (read+write) hits
system.cpu.dcache.demand_hits::total          4832433                       # number of demand (read+write) hits
system.cpu.dcache.overall_hits::.switch_cpus.data      4929142                       # number of overall hits
system.cpu.dcache.overall_hits::total         4929142                       # number of overall hits
system.cpu.dcache.demand_misses::.switch_cpus.data       371588                       # number of demand (read+write) misses
system.cpu.dcache.demand_misses::total         371588                       # number of demand (read+write) misses
system.cpu.dcache.overall_misses::.switch_cpus.data       374015                       # number of overall misses
system.cpu.dcache.overall_misses::total        374015                       # number of overall misses
system.cpu.dcache.demand_miss_latency::.switch_cpus.data  29470381497                       # number of demand (read+write) miss cycles
system.cpu.dcache.demand_miss_latency::total  29470381497                       # number of demand (read+write) miss cycles
system.cpu.dcache.overall_miss_latency::.switch_cpus.data  29470381497                       # number of overall miss cycles
system.cpu.dcache.overall_miss_latency::total  29470381497                       # number of overall miss cycles
system.cpu.dcache.demand_accesses::.switch_cpus.data      5204021                       # number of demand (read+write) accesses
system.cpu.dcache.demand_accesses::total      5204021                       # number of demand (read+write) accesses
system.cpu.dcache.overall_accesses::.switch_cpus.data      5303157                       # number of overall (read+write) accesses
system.cpu.dcache.overall_accesses::total      5303157                       # number of overall (read+write) accesses
system.cpu.dcache.demand_miss_rate::.switch_cpus.data     0.071404                       # miss rate for demand accesses
system.cpu.dcache.demand_miss_rate::total     0.071404                       # miss rate for demand accesses
system.cpu.dcache.overall_miss_rate::.switch_cpus.data     0.070527                       # miss rate for overall accesses
system.cpu.dcache.overall_miss_rate::total     0.070527                       # miss rate for overall accesses
system.cpu.dcache.demand_avg_miss_latency::.switch_cpus.data 79309.292811                       # average overall miss latency
system.cpu.dcache.demand_avg_miss_latency::total 79309.292811                       # average overall miss latency
system.cpu.dcache.overall_avg_miss_latency::.switch_cpus.data 78794.651276                       # average overall miss latency
system.cpu.dcache.overall_avg_miss_latency::total 78794.651276                       # average overall miss latency
system.cpu.dcache.blocked_cycles::no_mshrs         1015                       # number of cycles access was blocked
system.cpu.dcache.blocked_cycles::no_targets          670                       # number of cycles access was blocked
system.cpu.dcache.blocked::no_mshrs                33                       # number of cycles access was blocked
system.cpu.dcache.blocked::no_targets               8                       # number of cycles access was blocked
system.cpu.dcache.avg_blocked_cycles::no_mshrs    30.757576                       # average number of cycles each access was blocked
system.cpu.dcache.avg_blocked_cycles::no_targets    83.750000                       # average number of cycles each access was blocked
system.cpu.dcache.writebacks::.writebacks       364365                       # number of writebacks
system.cpu.dcache.writebacks::total            364365                       # number of writebacks
system.cpu.dcache.demand_mshr_hits::.switch_cpus.data         5466                       # number of demand (read+write) MSHR hits
system.cpu.dcache.demand_mshr_hits::total         5466                       # number of demand (read+write) MSHR hits
system.cpu.dcache.overall_mshr_hits::.switch_cpus.data         5466                       # number of overall MSHR hits
system.cpu.dcache.overall_mshr_hits::total         5466                       # number of overall MSHR hits
system.cpu.dcache.demand_mshr_misses::.switch_cpus.data       366122                       # number of demand (read+write) MSHR misses
system.cpu.dcache.demand_mshr_misses::total       366122                       # number of demand (read+write) MSHR misses
system.cpu.dcache.overall_mshr_misses::.switch_cpus.data       366809                       # number of overall MSHR misses
system.cpu.dcache.overall_mshr_misses::total       366809                       # number of overall MSHR misses
system.cpu.dcache.demand_mshr_miss_latency::.switch_cpus.data  29011386497                       # number of demand (read+write) MSHR miss cycles
system.cpu.dcache.demand_mshr_miss_latency::total  29011386497                       # number of demand (read+write) MSHR miss cycles
system.cpu.dcache.overall_mshr_miss_latency::.switch_cpus.data  29053954997                       # number of overall MSHR miss cycles
system.cpu.dcache.overall_mshr_miss_latency::total  29053954997                       # number of overall MSHR miss cycles
system.cpu.dcache.demand_mshr_miss_rate::.switch_cpus.data     0.070354                       # mshr miss rate for demand accesses
system.cpu.dcache.demand_mshr_miss_rate::total     0.070354                       # mshr miss rate for demand accesses
system.cpu.dcache.overall_mshr_miss_rate::.switch_cpus.data     0.069168                       # mshr miss rate for overall accesses
system.cpu.dcache.overall_mshr_miss_rate::total     0.069168                       # mshr miss rate for overall accesses
system.cpu.dcache.demand_avg_mshr_miss_latency::.switch_cpus.data 79239.670102                       # average overall mshr miss latency
system.cpu.dcache.demand_avg_mshr_miss_latency::total 79239.670102                       # average overall mshr miss latency
system.cpu.dcache.overall_avg_mshr_miss_latency::.switch_cpus.data 79207.312244                       # average overall mshr miss latency
system.cpu.dcache.overall_avg_mshr_miss_latency::total 79207.312244                       # average overall mshr miss latency
system.cpu.dcache.replacements                 366808                       # number of replacements
system.cpu.dcache.ReadReq_hits::.switch_cpus.data      4190683                       # number of ReadReq hits
system.cpu.dcache.ReadReq_hits::total         4190683                       # number of ReadReq hits
system.cpu.dcache.ReadReq_misses::.switch_cpus.data         9747                       # number of ReadReq misses
system.cpu.dcache.ReadReq_misses::total          9747                       # number of ReadReq misses
system.cpu.dcache.ReadReq_miss_latency::.switch_cpus.data    161786000                       # number of ReadReq miss cycles
system.cpu.dcache.ReadReq_miss_latency::total    161786000                       # number of ReadReq miss cycles
system.cpu.dcache.ReadReq_accesses::.switch_cpus.data      4200430                       # number of ReadReq accesses(hits+misses)
system.cpu.dcache.ReadReq_accesses::total      4200430                       # number of ReadReq accesses(hits+misses)
system.cpu.dcache.ReadReq_miss_rate::.switch_cpus.data     0.002320                       # miss rate for ReadReq accesses
system.cpu.dcache.ReadReq_miss_rate::total     0.002320                       # miss rate for ReadReq accesses
system.cpu.dcache.ReadReq_avg_miss_latency::.switch_cpus.data 16598.543141                       # average ReadReq miss latency
system.cpu.dcache.ReadReq_avg_miss_latency::total 16598.543141                       # average ReadReq miss latency
system.cpu.dcache.ReadReq_mshr_hits::.switch_cpus.data         5462                       # number of ReadReq MSHR hits
system.cpu.dcache.ReadReq_mshr_hits::total         5462                       # number of ReadReq MSHR hits
system.cpu.dcache.ReadReq_mshr_misses::.switch_cpus.data         4285                       # number of ReadReq MSHR misses
system.cpu.dcache.ReadReq_mshr_misses::total         4285                       # number of ReadReq MSHR misses
system.cpu.dcache.ReadReq_mshr_miss_latency::.switch_cpus.data     64905500                       # number of ReadReq MSHR miss cycles
system.cpu.dcache.ReadReq_mshr_miss_latency::total     64905500                       # number of ReadReq MSHR miss cycles
system.cpu.dcache.ReadReq_mshr_miss_rate::.switch_cpus.data     0.001020                       # mshr miss rate for ReadReq accesses
system.cpu.dcache.ReadReq_mshr_miss_rate::total     0.001020                       # mshr miss rate for ReadReq accesses
system.cpu.dcache.ReadReq_avg_mshr_miss_latency::.switch_cpus.data 15147.141190                       # average ReadReq mshr miss latency
system.cpu.dcache.ReadReq_avg_mshr_miss_latency::total 15147.141190                       # average ReadReq mshr miss latency
system.cpu.dcache.WriteReq_hits::.switch_cpus.data       641750                       # number of WriteReq hits
system.cpu.dcache.WriteReq_hits::total         641750                       # number of WriteReq hits
system.cpu.dcache.WriteReq_misses::.switch_cpus.data       361841                       # number of WriteReq misses
system.cpu.dcache.WriteReq_misses::total       361841                       # number of WriteReq misses
system.cpu.dcache.WriteReq_miss_latency::.switch_cpus.data  29308595497                       # number of WriteReq miss cycles
system.cpu.dcache.WriteReq_miss_latency::total  29308595497                       # number of WriteReq miss cycles
system.cpu.dcache.WriteReq_accesses::.switch_cpus.data      1003591                       # number of WriteReq accesses(hits+misses)
system.cpu.dcache.WriteReq_accesses::total      1003591                       # number of WriteReq accesses(hits+misses)
system.cpu.dcache.WriteReq_miss_rate::.switch_cpus.data     0.360546                       # miss rate for WriteReq accesses
system.cpu.dcache.WriteReq_miss_rate::total     0.360546                       # miss rate for WriteReq accesses
system.cpu.dcache.WriteReq_avg_miss_latency::.switch_cpus.data 80998.547696                       # average WriteReq miss latency
system.cpu.dcache.WriteReq_avg_miss_latency::total 80998.547696                       # average WriteReq miss latency
system.cpu.dcache.WriteReq_mshr_hits::.switch_cpus.data            4                       # number of WriteReq MSHR hits
system.cpu.dcache.WriteReq_mshr_hits::total            4                       # number of WriteReq MSHR hits
system.cpu.dcache.WriteReq_mshr_misses::.switch_cpus.data       361837                       # number of WriteReq MSHR misses
system.cpu.dcache.WriteReq_mshr_misses::total       361837                       # number of WriteReq MSHR misses
system.cpu.dcache.WriteReq_mshr_miss_latency::.switch_cpus.data  28946480997                       # number of WriteReq MSHR miss cycles
system.cpu.dcache.WriteReq_mshr_miss_latency::total  28946480997                       # number of WriteReq MSHR miss cycles
system.cpu.dcache.WriteReq_mshr_miss_rate::.switch_cpus.data     0.360542                       # mshr miss rate for WriteReq accesses
system.cpu.dcache.WriteReq_mshr_miss_rate::total     0.360542                       # mshr miss rate for WriteReq accesses
system.cpu.dcache.WriteReq_avg_mshr_miss_latency::.switch_cpus.data 79998.676191                       # average WriteReq mshr miss latency
system.cpu.dcache.WriteReq_avg_mshr_miss_latency::total 79998.676191                       # average WriteReq mshr miss latency
system.cpu.dcache.SoftPFReq_hits::.switch_cpus.data        96709                       # number of SoftPFReq hits
system.cpu.dcache.SoftPFReq_hits::total         96709                       # number of SoftPFReq hits
system.cpu.dcache.SoftPFReq_misses::.switch_cpus.data         2427                       # number of SoftPFReq misses
system.cpu.dcache.SoftPFReq_misses::total         2427                       # number of SoftPFReq misses
system.cpu.dcache.SoftPFReq_accesses::.switch_cpus.data        99136                       # number of SoftPFReq accesses(hits+misses)
system.cpu.dcache.SoftPFReq_accesses::total        99136                       # number of SoftPFReq accesses(hits+misses)
system.cpu.dcache.SoftPFReq_miss_rate::.switch_cpus.data     0.024482                       # miss rate for SoftPFReq accesses
system.cpu.dcache.SoftPFReq_miss_rate::total     0.024482                       # miss rate for SoftPFReq accesses
system.cpu.dcache.SoftPFReq_mshr_misses::.switch_cpus.data          687                       # number of SoftPFReq MSHR misses
system.cpu.dcache.SoftPFReq_mshr_misses::total          687                       # number of SoftPFReq MSHR misses
system.cpu.dcache.SoftPFReq_mshr_miss_latency::.switch_cpus.data     42568500                       # number of SoftPFReq MSHR miss cycles
system.cpu.dcache.SoftPFReq_mshr_miss_latency::total     42568500                       # number of SoftPFReq MSHR miss cycles
system.cpu.dcache.SoftPFReq_mshr_miss_rate::.switch_cpus.data     0.006930                       # mshr miss rate for SoftPFReq accesses
system.cpu.dcache.SoftPFReq_mshr_miss_rate::total     0.006930                       # mshr miss rate for SoftPFReq accesses
system.cpu.dcache.SoftPFReq_avg_mshr_miss_latency::.switch_cpus.data 61962.882096                       # average SoftPFReq mshr miss latency
system.cpu.dcache.SoftPFReq_avg_mshr_miss_latency::total 61962.882096                       # average SoftPFReq mshr miss latency
system.cpu.dcache.power_state.pwrStateResidencyTicks::UNDEFINED  36903858500                       # Cumulative time (in ticks) in various power states
system.cpu.dcache.tags.tagsinuse          1023.128791                       # Cycle average of tags in use
system.cpu.dcache.tags.total_refs             5473657                       # Total number of references to valid blocks.
system.cpu.dcache.tags.sampled_refs            367832                       # Sample count of references to valid blocks.
system.cpu.dcache.tags.avg_refs             14.880861                       # Average number of references to valid blocks.
system.cpu.dcache.tags.warmup_cycle                 0                       # Cycle when the warmup percentage was hit.
system.cpu.dcache.tags.occ_blocks::.cpu.data   843.355219                       # Average occupied blocks per requestor
system.cpu.dcache.tags.occ_blocks::.switch_cpus.data   179.773572                       # Average occupied blocks per requestor
system.cpu.dcache.tags.occ_percent::.cpu.data     0.823589                       # Average percentage of cache occupancy
system.cpu.dcache.tags.occ_percent::.switch_cpus.data     0.175560                       # Average percentage of cache occupancy
system.cpu.dcache.tags.occ_percent::total     0.999149                       # Average percentage of cache occupancy
system.cpu.dcache.tags.occ_task_id_blocks::1024         1024                       # Occupied blocks per task id
system.cpu.dcache.tags.age_task_id_blocks_1024::0            2                       # Occupied blocks per task id
system.cpu.dcache.tags.age_task_id_blocks_1024::1           21                       # Occupied blocks per task id
system.cpu.dcache.tags.age_task_id_blocks_1024::2          881                       # Occupied blocks per task id
system.cpu.dcache.tags.age_task_id_blocks_1024::3          111                       # Occupied blocks per task id
system.cpu.dcache.tags.age_task_id_blocks_1024::4            9                       # Occupied blocks per task id
system.cpu.dcache.tags.occ_task_id_percent::1024            1                       # Percentage of cache occupancy per task id
system.cpu.dcache.tags.tag_accesses          10973123                       # Number of tag accesses
system.cpu.dcache.tags.data_accesses         10973123                       # Number of data accesses
system.cpu.dcache.tags.power_state.pwrStateResidencyTicks::UNDEFINED  36903858500                       # Cumulative time (in ticks) in various power states
system.cpu.dtb.rdAccesses                           0                       # TLB accesses on read requests
system.cpu.dtb.wrAccesses                           0                       # TLB accesses on write requests
system.cpu.dtb.rdMisses                             0                       # TLB misses on read requests
system.cpu.dtb.wrMisses                             0                       # TLB misses on write requests
system.cpu.dtb.walker.power_state.pwrStateResidencyTicks::UNDEFINED  36903858500                       # Cumulative time (in ticks) in various power states
system.cpu.dtb_walker_cache.blocked_cycles::no_mshrs            0                       # number of cycles access was blocked
system.cpu.dtb_walker_cache.blocked_cycles::no_targets            0                       # number of cycles access was blocked
system.cpu.dtb_walker_cache.blocked::no_mshrs            0                       # number of cycles access was blocked
system.cpu.dtb_walker_cache.blocked::no_targets            0                       # number of cycles access was blocked
system.cpu.dtb_walker_cache.avg_blocked_cycles::no_mshrs          nan                       # average number of cycles each access was blocked
system.cpu.dtb_walker_cache.avg_blocked_cycles::no_targets          nan                       # average number of cycles each access was blocked
system.cpu.dtb_walker_cache.replacements            0                       # number of replacements
system.cpu.dtb_walker_cache.power_state.pwrStateResidencyTicks::UNDEFINED  36903858500                       # Cumulative time (in ticks) in various power states
system.cpu.dtb_walker_cache.tags.tagsinuse            0                       # Cycle average of tags in use
system.cpu.dtb_walker_cache.tags.total_refs            0                       # Total number of references to valid blocks.
system.cpu.dtb_walker_cache.tags.sampled_refs            0                       # Sample count of references to valid blocks.
system.cpu.dtb_walker_cache.tags.avg_refs          nan                       # Average number of references to valid blocks.
system.cpu.dtb_walker_cache.tags.warmup_cycle            0                       # Cycle when the warmup percentage was hit.
system.cpu.dtb_walker_cache.tags.tag_accesses            0                       # Number of tag accesses
system.cpu.dtb_walker_cache.tags.data_accesses            0                       # Number of data accesses
system.cpu.dtb_walker_cache.tags.power_state.pwrStateResidencyTicks::UNDEFINED  36903858500                       # Cumulative time (in ticks) in various power states
system.cpu.icache.demand_hits::.switch_cpus.inst      2785786                       # number of demand (read+write) hits
system.cpu.icache.demand_hits::total          2785786                       # number of demand (read+write) hits
system.cpu.icache.overall_hits::.switch_cpus.inst      2785786                       # number of overall hits
system.cpu.icache.overall_hits::total         2785786                       # number of overall hits
system.cpu.icache.demand_misses::.switch_cpus.inst          758                       # number of demand (read+write) misses
system.cpu.icache.demand_misses::total            758                       # number of demand (read+write) misses
system.cpu.icache.overall_misses::.switch_cpus.inst          758                       # number of overall misses
system.cpu.icache.overall_misses::total           758                       # number of overall misses
system.cpu.icache.demand_miss_latency::.switch_cpus.inst     50851000                       # number of demand (read+write) miss cycles
system.cpu.icache.demand_miss_latency::total     50851000                       # number of demand (read+write) miss cycles
system.cpu.icache.overall_miss_latency::.switch_cpus.inst     50851000                       # number of overall miss cycles
system.cpu.icache.overall_miss_latency::total     50851000                       # number of overall miss cycles
system.cpu.icache.demand_accesses::.switch_cpus.inst      2786544                       # number of demand (read+write) accesses
system.cpu.icache.demand_accesses::total      2786544                       # number of demand (read+write) accesses
system.cpu.icache.overall_accesses::.switch_cpus.inst      2786544                       # number of overall (read+write) accesses
system.cpu.icache.overall_accesses::total      2786544                       # number of overall (read+write) accesses
system.cpu.icache.demand_miss_rate::.switch_cpus.inst     0.000272                       # miss rate for demand accesses
system.cpu.icache.demand_miss_rate::total     0.000272                       # miss rate for demand accesses
system.cpu.icache.overall_miss_rate::.switch_cpus.inst     0.000272                       # miss rate for overall accesses
system.cpu.icache.overall_miss_rate::total     0.000272                       # miss rate for overall accesses
system.cpu.icache.demand_avg_miss_latency::.switch_cpus.inst 67085.751979                       # average overall miss latency
system.cpu.icache.demand_avg_miss_latency::total 67085.751979                       # average overall miss latency
system.cpu.icache.overall_avg_miss_latency::.switch_cpus.inst 67085.751979                       # average overall miss latency
system.cpu.icache.overall_avg_miss_latency::total 67085.751979                       # average overall miss latency
system.cpu.icache.blocked_cycles::no_mshrs          308                       # number of cycles access was blocked
system.cpu.icache.blocked_cycles::no_targets            0                       # number of cycles access was blocked
system.cpu.icache.blocked::no_mshrs                 6                       # number of cycles access was blocked
system.cpu.icache.blocked::no_targets               0                       # number of cycles access was blocked
system.cpu.icache.avg_blocked_cycles::no_mshrs    51.333333                       # average number of cycles each access was blocked
system.cpu.icache.avg_blocked_cycles::no_targets          nan                       # average number of cycles each access was blocked
system.cpu.icache.writebacks::.writebacks          438                       # number of writebacks
system.cpu.icache.writebacks::total               438                       # number of writebacks
system.cpu.icache.demand_mshr_hits::.switch_cpus.inst          160                       # number of demand (read+write) MSHR hits
system.cpu.icache.demand_mshr_hits::total          160                       # number of demand (read+write) MSHR hits
system.cpu.icache.overall_mshr_hits::.switch_cpus.inst          160                       # number of overall MSHR hits
system.cpu.icache.overall_mshr_hits::total          160                       # number of overall MSHR hits
system.cpu.icache.demand_mshr_misses::.switch_cpus.inst          598                       # number of demand (read+write) MSHR misses
system.cpu.icache.demand_mshr_misses::total          598                       # number of demand (read+write) MSHR misses
system.cpu.icache.overall_mshr_misses::.switch_cpus.inst          598                       # number of overall MSHR misses
system.cpu.icache.overall_mshr_misses::total          598                       # number of overall MSHR misses
system.cpu.icache.demand_mshr_miss_latency::.switch_cpus.inst     40895500                       # number of demand (read+write) MSHR miss cycles
system.cpu.icache.demand_mshr_miss_latency::total     40895500                       # number of demand (read+write) MSHR miss cycles
system.cpu.icache.overall_mshr_miss_latency::.switch_cpus.inst     40895500                       # number of overall MSHR miss cycles
system.cpu.icache.overall_mshr_miss_latency::total     40895500                       # number of overall MSHR miss cycles
system.cpu.icache.demand_mshr_miss_rate::.switch_cpus.inst     0.000215                       # mshr miss rate for demand accesses
system.cpu.icache.demand_mshr_miss_rate::total     0.000215                       # mshr miss rate for demand accesses
system.cpu.icache.overall_mshr_miss_rate::.switch_cpus.inst     0.000215                       # mshr miss rate for overall accesses
system.cpu.icache.overall_mshr_miss_rate::total     0.000215                       # mshr miss rate for overall accesses
system.cpu.icache.demand_avg_mshr_miss_latency::.switch_cpus.inst 68387.123746                       # average overall mshr miss latency
system.cpu.icache.demand_avg_mshr_miss_latency::total 68387.123746                       # average overall mshr miss latency
system.cpu.icache.overall_avg_mshr_miss_latency::.switch_cpus.inst 68387.123746                       # average overall mshr miss latency
system.cpu.icache.overall_avg_mshr_miss_latency::total 68387.123746                       # average overall mshr miss latency
system.cpu.icache.replacements                    438                       # number of replacements
system.cpu.icache.ReadReq_hits::.switch_cpus.inst      2785786                       # number of ReadReq hits
system.cpu.icache.ReadReq_hits::total         2785786                       # number of ReadReq hits
system.cpu.icache.ReadReq_misses::.switch_cpus.inst          758                       # number of ReadReq misses
system.cpu.icache.ReadReq_misses::total           758                       # number of ReadReq misses
system.cpu.icache.ReadReq_miss_latency::.switch_cpus.inst     50851000                       # number of ReadReq miss cycles
system.cpu.icache.ReadReq_miss_latency::total     50851000                       # number of ReadReq miss cycles
system.cpu.icache.ReadReq_accesses::.switch_cpus.inst      2786544                       # number of ReadReq accesses(hits+misses)
system.cpu.icache.ReadReq_accesses::total      2786544                       # number of ReadReq accesses(hits+misses)
system.cpu.icache.ReadReq_miss_rate::.switch_cpus.inst     0.000272                       # miss rate for ReadReq accesses
system.cpu.icache.ReadReq_miss_rate::total     0.000272                       # miss rate for ReadReq accesses
system.cpu.icache.ReadReq_avg_miss_latency::.switch_cpus.inst 67085.751979                       # average ReadReq miss latency
system.cpu.icache.ReadReq_avg_miss_latency::total 67085.751979                       # average ReadReq miss latency
system.cpu.icache.ReadReq_mshr_hits::.switch_cpus.inst          160                       # number of ReadReq MSHR hits
system.cpu.icache.ReadReq_mshr_hits::total          160                       # number of ReadReq MSHR hits
system.cpu.icache.ReadReq_mshr_misses::.switch_cpus.inst          598                       # number of ReadReq MSHR misses
system.cpu.icache.ReadReq_mshr_misses::total          598                       # number of ReadReq MSHR misses
system.cpu.icache.ReadReq_mshr_miss_latency::.switch_cpus.inst     40895500                       # number of ReadReq MSHR miss cycles
system.cpu.icache.ReadReq_mshr_miss_latency::total     40895500                       # number of ReadReq MSHR miss cycles
system.cpu.icache.ReadReq_mshr_miss_rate::.switch_cpus.inst     0.000215                       # mshr miss rate for ReadReq accesses
system.cpu.icache.ReadReq_mshr_miss_rate::total     0.000215                       # mshr miss rate for ReadReq accesses
system.cpu.icache.ReadReq_avg_mshr_miss_latency::.switch_cpus.inst 68387.123746                       # average ReadReq mshr miss latency
system.cpu.icache.ReadReq_avg_mshr_miss_latency::total 68387.123746                       # average ReadReq mshr miss latency
system.cpu.icache.power_state.pwrStateResidencyTicks::UNDEFINED  36903858500                       # Cumulative time (in ticks) in various power states
system.cpu.icache.tags.tagsinuse           806.747239                       # Cycle average of tags in use
system.cpu.icache.tags.total_refs             4037651                       # Total number of references to valid blocks.
system.cpu.icache.tags.sampled_refs              1381                       # Sample count of references to valid blocks.
system.cpu.icache.tags.avg_refs           2923.715424                       # Average number of references to valid blocks.
system.cpu.icache.tags.warmup_cycle                 0                       # Cycle when the warmup percentage was hit.
system.cpu.icache.tags.occ_blocks::.cpu.inst   737.116116                       # Average occupied blocks per requestor
system.cpu.icache.tags.occ_blocks::.switch_cpus.inst    69.631122                       # Average occupied blocks per requestor
system.cpu.icache.tags.occ_percent::.cpu.inst     0.719840                       # Average percentage of cache occupancy
system.cpu.icache.tags.occ_percent::.switch_cpus.inst     0.067999                       # Average percentage of cache occupancy
system.cpu.icache.tags.occ_percent::total     0.787839                       # Average percentage of cache occupancy
system.cpu.icache.tags.occ_task_id_blocks::1024          943                       # Occupied blocks per task id
system.cpu.icache.tags.age_task_id_blocks_1024::2            9                       # Occupied blocks per task id
system.cpu.icache.tags.age_task_id_blocks_1024::3          461                       # Occupied blocks per task id
system.cpu.icache.tags.age_task_id_blocks_1024::4          473                       # Occupied blocks per task id
system.cpu.icache.tags.occ_task_id_percent::1024     0.920898                       # Percentage of cache occupancy per task id
system.cpu.icache.tags.tag_accesses           5573686                       # Number of tag accesses
system.cpu.icache.tags.data_accesses          5573686                       # Number of data accesses
system.cpu.icache.tags.power_state.pwrStateResidencyTicks::UNDEFINED  36903858500                       # Cumulative time (in ticks) in various power states
system.cpu.interrupts.clk_domain.clock           8000                       # Clock period in ticks
system.cpu.itb.rdAccesses                           0                       # TLB accesses on read requests
system.cpu.itb.wrAccesses                           0                       # TLB accesses on write requests
system.cpu.itb.rdMisses                             0                       # TLB misses on read requests
system.cpu.itb.wrMisses                             0                       # TLB misses on write requests
system.cpu.itb.walker.power_state.pwrStateResidencyTicks::UNDEFINED  36903858500                       # Cumulative time (in ticks) in various power states
system.cpu.itb_walker_cache.blocked_cycles::no_mshrs            0                       # number of cycles access was blocked
system.cpu.itb_walker_cache.blocked_cycles::no_targets            0                       # number of cycles access was blocked
system.cpu.itb_walker_cache.blocked::no_mshrs            0                       # number of cycles access was blocked
system.cpu.itb_walker_cache.blocked::no_targets            0                       # number of cycles access was blocked
system.cpu.itb_walker_cache.avg_blocked_cycles::no_mshrs          nan                       # average number of cycles each access was blocked
system.cpu.itb_walker_cache.avg_blocked_cycles::no_targets          nan                       # average number of cycles each access was blocked
system.cpu.itb_walker_cache.replacements            0                       # number of replacements
system.cpu.itb_walker_cache.power_state.pwrStateResidencyTicks::UNDEFINED  36903858500                       # Cumulative time (in ticks) in various power states
system.cpu.itb_walker_cache.tags.tagsinuse            0                       # Cycle average of tags in use
system.cpu.itb_walker_cache.tags.total_refs            0                       # Total number of references to valid blocks.
system.cpu.itb_walker_cache.tags.sampled_refs            0                       # Sample count of references to valid blocks.
system.cpu.itb_walker_cache.tags.avg_refs          nan                       # Average number of references to valid blocks.
system.cpu.itb_walker_cache.tags.warmup_cycle            0                       # Cycle when the warmup percentage was hit.
system.cpu.itb_walker_cache.tags.tag_accesses            0                       # Number of tag accesses
system.cpu.itb_walker_cache.tags.data_accesses            0                       # Number of data accesses
system.cpu.itb_walker_cache.tags.power_state.pwrStateResidencyTicks::UNDEFINED  36903858500                       # Cumulative time (in ticks) in various power states
system.cpu.power_state.pwrStateResidencyTicks::OFF  35870525500                       # Cumulative time (in ticks) in various power states
system.cpu.thread_0.numInsts                        0                       # Number of Instructions committed
system.cpu.thread_0.numOps                          0                       # Number of Ops committed
system.cpu.thread_0.numMemRefs                      0                       # Number of Memory References
system.cpu_clk_domain.clock                       500                       # Clock period in ticks
system.cpu_voltage_domain.voltage                   1                       # Voltage in Volts
system.l2.demand_hits::.switch_cpus.inst           98                       # number of demand (read+write) hits
system.l2.demand_hits::.switch_cpus.data         5060                       # number of demand (read+write) hits
system.l2.demand_hits::total                     5158                       # number of demand (read+write) hits
system.l2.overall_hits::.switch_cpus.inst           98                       # number of overall hits
system.l2.overall_hits::.switch_cpus.data         5060                       # number of overall hits
system.l2.overall_hits::total                    5158                       # number of overall hits
system.l2.demand_misses::.switch_cpus.inst          500                       # number of demand (read+write) misses
system.l2.demand_misses::.switch_cpus.data       361749                       # number of demand (read+write) misses
system.l2.demand_misses::total                 362249                       # number of demand (read+write) misses
system.l2.overall_misses::.switch_cpus.inst          500                       # number of overall misses
system.l2.overall_misses::.switch_cpus.data       361749                       # number of overall misses
system.l2.overall_misses::total                362249                       # number of overall misses
system.l2.demand_miss_latency::.switch_cpus.inst     38959500                       # number of demand (read+write) miss cycles
system.l2.demand_miss_latency::.switch_cpus.data  28316267000                       # number of demand (read+write) miss cycles
system.l2.demand_miss_latency::total      28355226500                       # number of demand (read+write) miss cycles
system.l2.overall_miss_latency::.switch_cpus.inst     38959500                       # number of overall miss cycles
system.l2.overall_miss_latency::.switch_cpus.data  28316267000                       # number of overall miss cycles
system.l2.overall_miss_latency::total     28355226500                       # number of overall miss cycles
system.l2.demand_accesses::.switch_cpus.inst          598                       # number of demand (read+write) accesses
system.l2.demand_accesses::.switch_cpus.data       366809                       # number of demand (read+write) accesses
system.l2.demand_accesses::total               367407                       # number of demand (read+write) accesses
system.l2.overall_accesses::.switch_cpus.inst          598                       # number of overall (read+write) accesses
system.l2.overall_accesses::.switch_cpus.data       366809                       # number of overall (read+write) accesses
system.l2.overall_accesses::total              367407                       # number of overall (read+write) accesses
system.l2.demand_miss_rate::.switch_cpus.inst     0.836120                       # miss rate for demand accesses
system.l2.demand_miss_rate::.switch_cpus.data     0.986205                       # miss rate for demand accesses
system.l2.demand_miss_rate::total            0.985961                       # miss rate for demand accesses
system.l2.overall_miss_rate::.switch_cpus.inst     0.836120                       # miss rate for overall accesses
system.l2.overall_miss_rate::.switch_cpus.data     0.986205                       # miss rate for overall accesses
system.l2.overall_miss_rate::total           0.985961                       # miss rate for overall accesses
system.l2.demand_avg_miss_latency::.switch_cpus.inst        77919                       # average overall miss latency
system.l2.demand_avg_miss_latency::.switch_cpus.data 78276.006292                       # average overall miss latency
system.l2.demand_avg_miss_latency::total 78275.513528                       # average overall miss latency
system.l2.overall_avg_miss_latency::.switch_cpus.inst        77919                       # average overall miss latency
system.l2.overall_avg_miss_latency::.switch_cpus.data 78276.006292                       # average overall miss latency
system.l2.overall_avg_miss_latency::total 78275.513528                       # average overall miss latency
system.l2.blocked_cycles::no_mshrs                  0                       # number of cycles access was blocked
system.l2.blocked_cycles::no_targets                0                       # number of cycles access was blocked
system.l2.blocked::no_mshrs                         0                       # number of cycles access was blocked
system.l2.blocked::no_targets                       0                       # number of cycles access was blocked
system.l2.avg_blocked_cycles::no_mshrs            nan                       # average number of cycles each access was blocked
system.l2.avg_blocked_cycles::no_targets          nan                       # average number of cycles each access was blocked
system.l2.writebacks::.writebacks              357508                       # number of writebacks
system.l2.writebacks::total                    357508                       # number of writebacks
system.l2.demand_mshr_misses::.switch_cpus.inst          500                       # number of demand (read+write) MSHR misses
system.l2.demand_mshr_misses::.switch_cpus.data       361749                       # number of demand (read+write) MSHR misses
system.l2.demand_mshr_misses::total            362249                       # number of demand (read+write) MSHR misses
system.l2.overall_mshr_misses::.switch_cpus.inst          500                       # number of overall MSHR misses
system.l2.overall_mshr_misses::.switch_cpus.data       361749                       # number of overall MSHR misses
system.l2.overall_mshr_misses::total           362249                       # number of overall MSHR misses
system.l2.demand_mshr_miss_latency::.switch_cpus.inst     33959500                       # number of demand (read+write) MSHR miss cycles
system.l2.demand_mshr_miss_latency::.switch_cpus.data  24698777000                       # number of demand (read+write) MSHR miss cycles
system.l2.demand_mshr_miss_latency::total  24732736500                       # number of demand (read+write) MSHR miss cycles
system.l2.overall_mshr_miss_latency::.switch_cpus.inst     33959500                       # number of overall MSHR miss cycles
system.l2.overall_mshr_miss_latency::.switch_cpus.data  24698777000                       # number of overall MSHR miss cycles
system.l2.overall_mshr_miss_latency::total  24732736500                       # number of overall MSHR miss cycles
system.l2.demand_mshr_miss_rate::.switch_cpus.inst     0.836120                       # mshr miss rate for demand accesses
system.l2.demand_mshr_miss_rate::.switch_cpus.data     0.986205                       # mshr miss rate for demand accesses
system.l2.demand_mshr_miss_rate::total       0.985961                       # mshr miss rate for demand accesses
system.l2.overall_mshr_miss_rate::.switch_cpus.inst     0.836120                       # mshr miss rate for overall accesses
system.l2.overall_mshr_miss_rate::.switch_cpus.data     0.986205                       # mshr miss rate for overall accesses
system.l2.overall_mshr_miss_rate::total      0.985961                       # mshr miss rate for overall accesses
system.l2.demand_avg_mshr_miss_latency::.switch_cpus.inst        67919                       # average overall mshr miss latency
system.l2.demand_avg_mshr_miss_latency::.switch_cpus.data 68276.006292                       # average overall mshr miss latency
system.l2.demand_avg_mshr_miss_latency::total 68275.513528                       # average overall mshr miss latency
system.l2.overall_avg_mshr_miss_latency::.switch_cpus.inst        67919                       # average overall mshr miss latency
system.l2.overall_avg_mshr_miss_latency::.switch_cpus.data 68276.006292                       # average overall mshr miss latency
system.l2.overall_avg_mshr_miss_latency::total 68275.513528                       # average overall mshr miss latency
system.l2.replacements                         358293                       # number of replacements
system.l2.WritebackDirty_hits::.writebacks       364365                       # number of WritebackDirty hits
system.l2.WritebackDirty_hits::total           364365                       # number of WritebackDirty hits
system.l2.WritebackDirty_accesses::.writebacks       364365                       # number of WritebackDirty accesses(hits+misses)
system.l2.WritebackDirty_accesses::total       364365                       # number of WritebackDirty accesses(hits+misses)
system.l2.WritebackClean_hits::.writebacks          437                       # number of WritebackClean hits
system.l2.WritebackClean_hits::total              437                       # number of WritebackClean hits
system.l2.WritebackClean_accesses::.writebacks          437                       # number of WritebackClean accesses(hits+misses)
system.l2.WritebackClean_accesses::total          437                       # number of WritebackClean accesses(hits+misses)
system.l2.ReadExReq_hits::.switch_cpus.data          775                       # number of ReadExReq hits
system.l2.ReadExReq_hits::total                   775                       # number of ReadExReq hits
system.l2.ReadExReq_misses::.switch_cpus.data       361062                       # number of ReadExReq misses
system.l2.ReadExReq_misses::total              361062                       # number of ReadExReq misses
system.l2.ReadExReq_miss_latency::.switch_cpus.data  28261692500                       # number of ReadExReq miss cycles
system.l2.ReadExReq_miss_latency::total   28261692500                       # number of ReadExReq miss cycles
system.l2.ReadExReq_accesses::.switch_cpus.data       361837                       # number of ReadExReq accesses(hits+misses)
system.l2.ReadExReq_accesses::total            361837                       # number of ReadExReq accesses(hits+misses)
system.l2.ReadExReq_miss_rate::.switch_cpus.data     0.997858                       # miss rate for ReadExReq accesses
system.l2.ReadExReq_miss_rate::total         0.997858                       # miss rate for ReadExReq accesses
[...]
system.switch_cpus.commit.committedInstType_0::FloatSqrt            0      0.00%     83.38% # Class of committed instruction
system.switch_cpus.commit.committedInstType_0::SimdAdd            0      0.00%     83.38% # Class of committed instruction
system.switch_cpus.commit.committedInstType_0::SimdAddAcc            0      0.00%     83.38% # Class of committed instruction
system.switch_cpus.commit.committedInstType_0::SimdAlu           38      0.00%     83.38% # Class of committed instruction
system.switch_cpus.commit.committedInstType_0::SimdCmp            0      0.00%     83.38% # Class of committed instruction
system.switch_cpus.commit.committedInstType_0::SimdCvt           16      0.00%     83.38% # Class of committed instruction
system.switch_cpus.commit.committedInstType_0::SimdMisc          195      0.00%     83.39% # Class of committed instruction
system.switch_cpus.commit.committedInstType_0::SimdMult            0      0.00%     83.39% # Class of committed instruction
system.switch_cpus.commit.committedInstType_0::SimdMultAcc            0      0.00%     83.39% # Class of committed instruction
system.switch_cpus.commit.committedInstType_0::SimdShift            0      0.00%     83.39% # Class of committed instruction
system.switch_cpus.commit.committedInstType_0::SimdShiftAcc            0      0.00%     83.39% # Class of committed instruction
system.switch_cpus.commit.committedInstType_0::SimdDiv            0      0.00%     83.39% # Class of committed instruction
system.switch_cpus.commit.committedInstType_0::SimdSqrt            0      0.00%     83.39% # Class of committed instruction
system.switch_cpus.commit.committedInstType_0::SimdFloatAdd            0      0.00%     83.39% # Class of committed instruction
system.switch_cpus.commit.committedInstType_0::SimdFloatAlu            0      0.00%     83.39% # Class of committed instruction
system.switch_cpus.commit.committedInstType_0::SimdFloatCmp            0      0.00%     83.39% # Class of committed instruction
system.switch_cpus.commit.committedInstType_0::SimdFloatCvt            0      0.00%     83.39% # Class of committed instruction
system.switch_cpus.commit.committedInstType_0::SimdFloatDiv            0      0.00%     83.39% # Class of committed instruction
system.switch_cpus.commit.committedInstType_0::SimdFloatMisc            0      0.00%     83.39% # Class of committed instruction
system.switch_cpus.commit.committedInstType_0::SimdFloatMult            0      0.00%     83.39% # Class of committed instruction
system.switch_cpus.commit.committedInstType_0::SimdFloatMultAcc            0      0.00%     83.39% # Class of committed instruction
system.switch_cpus.commit.committedInstType_0::SimdFloatSqrt            0      0.00%     83.39% # Class of committed instruction
system.switch_cpus.commit.committedInstType_0::SimdReduceAdd            0      0.00%     83.39% # Class of committed instruction
system.switch_cpus.commit.committedInstType_0::SimdReduceAlu            0      0.00%     83.39% # Class of committed instruction
system.switch_cpus.commit.committedInstType_0::SimdReduceCmp            0      0.00%     83.39% # Class of committed instruction
system.switch_cpus.commit.committedInstType_0::SimdFloatReduceAdd            0      0.00%     83.39% # Class of committed instruction
system.switch_cpus.commit.committedInstType_0::SimdFloatReduceCmp            0      0.00%     83.39% # Class of committed instruction
system.switch_cpus.commit.committedInstType_0::SimdAes            0      0.00%     83.39% # Class of committed instruction
system.switch_cpus.commit.committedInstType_0::SimdAesMix            0      0.00%     83.39% # Class of committed instruction
system.switch_cpus.commit.committedInstType_0::SimdSha1Hash            0      0.00%     83.39% # Class of committed instruction
system.switch_cpus.commit.committedInstType_0::SimdSha1Hash2            0      0.00%     83.39% # Class of committed instruction
system.switch_cpus.commit.committedInstType_0::SimdSha256Hash            0      0.00%     83.39% # Class of committed instruction
system.switch_cpus.commit.committedInstType_0::SimdSha256Hash2            0      0.00%     83.39% # Class of committed instruction
system.switch_cpus.commit.committedInstType_0::SimdShaSigma2            0      0.00%     83.39% # Class of committed instruction
system.switch_cpus.commit.committedInstType_0::SimdShaSigma3            0      0.00%     83.39% # Class of committed instruction
system.switch_cpus.commit.committedInstType_0::SimdPredAlu            0      0.00%     83.39% # Class of committed instruction
system.switch_cpus.commit.committedInstType_0::MemRead      1552130      9.94%     93.32% # Class of committed instruction
system.switch_cpus.commit.committedInstType_0::MemWrite       959935      6.14%     99.47% # Class of committed instruction
system.switch_cpus.commit.committedInstType_0::FloatMemRead        41594      0.27%     99.73% # Class of committed instruction
system.switch_cpus.commit.committedInstType_0::FloatMemWrite        41766      0.27%    100.00% # Class of committed instruction
system.switch_cpus.commit.committedInstType_0::IprAccess            0      0.00%    100.00% # Class of committed instruction
system.switch_cpus.commit.committedInstType_0::InstPrefetch            0      0.00%    100.00% # Class of committed instruction
system.switch_cpus.commit.committedInstType_0::total     15621644                       # Class of committed instruction
system.switch_cpus.commit.commitEligibleSamples       822283                       # number cycles where commit BW limit reached
system.switch_cpus.decode.idleCycles          2483665                       # Number of cycles decode is idle
system.switch_cpus.decode.blockedCycles      60714209                       # Number of cycles decode is blocked
system.switch_cpus.decode.runCycles           7391389                       # Number of cycles decode is running
system.switch_cpus.decode.unblockCycles        777900                       # Number of cycles decode is unblocking
system.switch_cpus.decode.squashCycles         336650                       # Number of cycles decode is squashing
system.switch_cpus.decode.branchResolved      3931344                       # Number of times decode resolved a  branch
system.switch_cpus.decode.branchMispred           648                       # Number of times decode detected a branch misprediction
system.switch_cpus.decode.decodedInsts       47850003                       # Number of instructions handled by decode
system.switch_cpus.decode.squashedInsts          2214                       # Number of squashed instructions handled by decode
system.switch_cpus.dtb.rdAccesses             4551593                       # TLB accesses on read requests
system.switch_cpus.dtb.wrAccesses             3696556                       # TLB accesses on write requests
system.switch_cpus.dtb.rdMisses                   292                       # TLB misses on read requests
system.switch_cpus.dtb.wrMisses               2052620                       # TLB misses on write requests
system.switch_cpus.dtb.walker.power_state.pwrStateResidencyTicks::UNDEFINED  36903858500                       # Cumulative time (in ticks) in various power states
system.switch_cpus.fetch.icacheStallCycles      2972141                       # Number of cycles fetch is stalled on an Icache miss
system.switch_cpus.fetch.insts               32239273                       # Number of instructions fetch has processed
system.switch_cpus.fetch.branches             4987386                       # Number of branches that fetch encountered
system.switch_cpus.fetch.predictedBranches      4412517                       # Number of branches that fetch has predicted taken
system.switch_cpus.fetch.cycles              68393496                       # Number of cycles fetch has run and was not squashing or blocked
system.switch_cpus.fetch.squashCycles          674578                       # Number of cycles fetch has spent squashing
system.switch_cpus.fetch.miscStallCycles          110                       # Number of cycles fetch has spent waiting on interrupts,or bad addresses, or out of MSHRs
system.switch_cpus.fetch.pendingTrapStallCycles          737                       # Number of stall cycles due to pending traps
system.switch_cpus.fetch.icacheWaitRetryStallCycles           45                       # Number of stall cycles due to full MSHR
system.switch_cpus.fetch.cacheLines           2786544                       # Number of cache lines fetched
system.switch_cpus.fetch.icacheSquashes         68725                       # Number of outstanding Icache misses that were squashed
system.switch_cpus.fetch.nisnDist::samples     71703818                       # Number of instructions fetched each cycle (Total)
system.switch_cpus.fetch.nisnDist::mean      0.743378                       # Number of instructions fetched each cycle (Total)
system.switch_cpus.fetch.nisnDist::stdev     2.147327                       # Number of instructions fetched each cycle (Total)
system.switch_cpus.fetch.nisnDist::underflows            0      0.00%      0.00% # Number of instructions fetched each cycle (Total)
system.switch_cpus.fetch.nisnDist::0         61364075     85.58%     85.58% # Number of instructions fetched each cycle (Total)
system.switch_cpus.fetch.nisnDist::1          2769232      3.86%     89.44% # Number of instructions fetched each cycle (Total)
system.switch_cpus.fetch.nisnDist::2           332883      0.46%     89.91% # Number of instructions fetched each cycle (Total)
system.switch_cpus.fetch.nisnDist::3           645989      0.90%     90.81% # Number of instructions fetched each cycle (Total)
system.switch_cpus.fetch.nisnDist::4           500566      0.70%     91.51% # Number of instructions fetched each cycle (Total)
system.switch_cpus.fetch.nisnDist::5           672575      0.94%     92.44% # Number of instructions fetched each cycle (Total)
system.switch_cpus.fetch.nisnDist::6           237486      0.33%     92.77% # Number of instructions fetched each cycle (Total)
system.switch_cpus.fetch.nisnDist::7           308054      0.43%     93.20% # Number of instructions fetched each cycle (Total)
system.switch_cpus.fetch.nisnDist::8          4872958      6.80%    100.00% # Number of instructions fetched each cycle (Total)
system.switch_cpus.fetch.nisnDist::overflows            0      0.00%    100.00% # Number of instructions fetched each cycle (Total)
system.switch_cpus.fetch.nisnDist::min_value            0                       # Number of instructions fetched each cycle (Total)
system.switch_cpus.fetch.nisnDist::max_value            8                       # Number of instructions fetched each cycle (Total)
system.switch_cpus.fetch.nisnDist::total     71703818                       # Number of instructions fetched each cycle (Total)
system.switch_cpus.fetch.branchRate          0.069519                       # Number of branch fetches per cycle
system.switch_cpus.fetch.rate                0.449384                       # Number of inst fetches per cycle
system.switch_cpus.itb.rdAccesses                   0                       # TLB accesses on read requests
system.switch_cpus.itb.wrAccesses             2786671                       # TLB accesses on write requests
system.switch_cpus.itb.rdMisses                     0                       # TLB misses on read requests
system.switch_cpus.itb.wrMisses                   167                       # TLB misses on write requests
system.switch_cpus.itb.walker.power_state.pwrStateResidencyTicks::UNDEFINED  36903858500                       # Cumulative time (in ticks) in various power states
system.switch_cpus.lsq0.forwLoads              251708                       # Number of loads that had data forwarded from stores
system.switch_cpus.lsq0.squashedLoads         3354757                       # Number of loads squashed
system.switch_cpus.lsq0.ignoredResponses         5578                       # Number of memory responses ignored because the instruction is squashed
system.switch_cpus.lsq0.memOrderViolation         1595                       # Number of memory ordering violations
system.switch_cpus.lsq0.squashedStores        3123146                       # Number of stores squashed
system.switch_cpus.lsq0.rescheduledLoads            1                       # Number of loads that were rescheduled
system.switch_cpus.lsq0.blockedByCache             41                       # Number of times an access to memory failed due to the cache being blocked
system.switch_cpus.power_state.pwrStateResidencyTicks::OFF  36903858500                       # Cumulative time (in ticks) in various power states
system.switch_cpus.rename.squashCycles         336650                       # Number of cycles rename is squashing
system.switch_cpus.rename.idleCycles          2900901                       # Number of cycles rename is idle
system.switch_cpus.rename.blockCycles        59428190                       # Number of cycles rename is blocking
system.switch_cpus.rename.serializeStallCycles            0                       # count of cycles rename stalledfor serializing inst
system.switch_cpus.rename.runCycles           7738221                       # Number of cycles rename is running
system.switch_cpus.rename.unblockCycles       1299851                       # Number of cycles rename is unblocking
system.switch_cpus.rename.renamedInsts       46539764                       # Number of instructions processed by rename
system.switch_cpus.rename.ROBFullEvents        268315                       # Number of times rename has blocked due to ROB full
system.switch_cpus.rename.IQFullEvents         445763                       # Number of times rename has blocked due to IQ full
system.switch_cpus.rename.LQFullEvents            809                       # Number of times rename has blocked due to LQ full
system.switch_cpus.rename.SQFullEvents         556744                       # Number of times rename has blocked due to SQ full
system.switch_cpus.rename.renamedOperands     61594273                       # Number of destination operands rename has renamed
system.switch_cpus.rename.lookups           112457316                       # Number of register rename lookups that rename has made
system.switch_cpus.rename.intLookups         71334602                       # Number of integer rename lookups
system.switch_cpus.rename.fpLookups            528726                       # Number of floating rename lookups
system.switch_cpus.rename.committedMaps      21895928                       # Number of HB maps that are committed
system.switch_cpus.rename.undoneMaps         39698282                       # Number of HB maps that are undone due to squashing
system.switch_cpus.rename.serializing               0                       # count of serializing insts renamed
system.switch_cpus.rename.tempSerializing            0                       # count of temporary serializing insts renamed
system.switch_cpus.rename.skidInsts           2074466                       # count of insts added to the skid buffer
system.switch_cpus.rob.reads                110352263                       # The number of ROB reads
system.switch_cpus.rob.writes                92954313                       # The number of ROB writes
system.switch_cpus.thread_0.numInsts         10000001                       # Number of Instructions committed
system.switch_cpus.thread_0.numOps           15621644                       # Number of Ops committed
system.switch_cpus.thread_0.numMemRefs              0                       # Number of Memory References
system.tol2bus.trans_dist::ReadResp              5570                       # Transaction distribution
system.tol2bus.trans_dist::WritebackDirty       721873                       # Transaction distribution
system.tol2bus.trans_dist::WritebackClean          438                       # Transaction distribution
system.tol2bus.trans_dist::CleanEvict            3228                       # Transaction distribution
system.tol2bus.trans_dist::ReadExReq           361837                       # Transaction distribution
system.tol2bus.trans_dist::ReadExResp          361837                       # Transaction distribution
system.tol2bus.trans_dist::ReadCleanReq           598                       # Transaction distribution
system.tol2bus.trans_dist::ReadSharedReq         4972                       # Transaction distribution
system.tol2bus.pkt_count_system.cpu.icache.mem_side_port::system.l2.cpu_side_port         1634                       # Packet count per connected requestor and responder (bytes)
system.tol2bus.pkt_count_system.cpu.dcache.mem_side_port::system.l2.cpu_side_port      1100426                       # Packet count per connected requestor and responder (bytes)
system.tol2bus.pkt_count::total               1102060                       # Packet count per connected requestor and responder (bytes)
system.tol2bus.pkt_size_system.cpu.icache.mem_side_port::system.l2.cpu_side_port        66304                       # Cumulative packet size per connected requestor and responder (bytes)
system.tol2bus.pkt_size_system.cpu.dcache.mem_side_port::system.l2.cpu_side_port     46795136                       # Cumulative packet size per connected requestor and responder (bytes)
system.tol2bus.pkt_size::total               46861440                       # Cumulative packet size per connected requestor and responder (bytes)
system.tol2bus.snoops                          358293                       # Total snoops (count)
system.tol2bus.snoopTraffic                  22880512                       # Total snoop traffic (bytes)
system.tol2bus.snoop_fanout::samples           725700                       # Request fanout histogram
system.tol2bus.snoop_fanout::mean            0.000232                       # Request fanout histogram
system.tol2bus.snoop_fanout::stdev           0.015213                       # Request fanout histogram
system.tol2bus.snoop_fanout::underflows             0      0.00%      0.00% # Request fanout histogram
system.tol2bus.snoop_fanout::0                 725532     99.98%     99.98% # Request fanout histogram
system.tol2bus.snoop_fanout::1                    168      0.02%    100.00% # Request fanout histogram
system.tol2bus.snoop_fanout::2                      0      0.00%    100.00% # Request fanout histogram
system.tol2bus.snoop_fanout::3                      0      0.00%    100.00% # Request fanout histogram
system.tol2bus.snoop_fanout::4                      0      0.00%    100.00% # Request fanout histogram
system.tol2bus.snoop_fanout::overflows              0      0.00%    100.00% # Request fanout histogram
system.tol2bus.snoop_fanout::min_value              0                       # Request fanout histogram
system.tol2bus.snoop_fanout::max_value              1                       # Request fanout histogram
system.tol2bus.snoop_fanout::total             725700                       # Request fanout histogram
system.tol2bus.power_state.pwrStateResidencyTicks::UNDEFINED  36903858500                       # Cumulative time (in ticks) in various power states
system.tol2bus.reqLayer0.occupancy          732129500                       # Layer occupancy (ticks)
system.tol2bus.reqLayer0.utilization              2.0                       # Layer utilization (%)
system.tol2bus.respLayer0.occupancy            897499                       # Layer occupancy (ticks)
system.tol2bus.respLayer0.utilization             0.0                       # Layer utilization (%)
system.tol2bus.respLayer1.occupancy         550213500                       # Layer occupancy (ticks)
system.tol2bus.respLayer1.utilization             1.5                       # Layer utilization (%)
system.voltage_domain.voltage                       1                       # Voltage in Volts

---------- End Simulation Statistics   ----------
