
---------- Begin Simulation Statistics ----------
final_tick                                10489175500                       # Number of ticks from beginning of simulation (restored from checkpoints and never reset)
host_inst_rate                                  92625                       # Simulator instruction rate (inst/s)
host_mem_usage                                8690932                       # Number of bytes of host memory used
host_op_rate                                   174252                       # Simulator op (including micro ops) rate (op/s)
host_seconds                                   118.76                       # Real time elapsed on the host
host_tick_rate                               79312200                       # Simulator tick rate (ticks/s)
sim_freq                                 1000000000000                       # Frequency of simulated ticks
sim_insts                                    11000001                       # Number of instructions simulated
sim_ops                                      20693944                       # Number of ops (including micro ops) simulated
sim_seconds                                  0.009419                       # Number of seconds simulated
sim_ticks                                  9419005500                       # Number of ticks simulated
system.cpu.committedInsts                           0                       # Number of instructions committed
system.cpu.committedOps                             0                       # Number of ops (including micro ops) committed
system.cpu.idle_fraction                            0                       # Percentage of idle cycles
system.cpu.not_idle_fraction                        1                       # Percentage of non-idle cycles
system.cpu.numCycles                                0                       # number of cpu cycles simulated
system.cpu.numWorkItemsCompleted                    0                       # number of work items this cpu completed
system.cpu.numWorkItemsStarted                      0                       # number of work items this cpu started
system.cpu.num_busy_cycles                          0                       # Number of busy cycles
system.cpu.num_conditional_control_insts            0                       # number of instructions that are conditional controls
system.cpu.num_fp_alu_accesses                      0                       # Number of float alu accesses
system.cpu.num_fp_insts                             0                       # number of float instructions
system.cpu.num_fp_register_reads                    0                       # number of times the floating registers were read
system.cpu.num_fp_register_writes                   0                       # number of times the floating registers were written
system.cpu.num_func_calls                           0                       # number of times a function call or return occured
system.cpu.num_idle_cycles                          0                       # Number of idle cycles
system.cpu.num_int_alu_accesses                     0                       # Number of integer alu accesses
system.cpu.num_int_insts                            0                       # number of integer instructions
system.cpu.num_int_register_reads                   0                       # number of times the integer registers were read
system.cpu.num_int_register_writes                  0                       # number of times the integer registers were written
system.cpu.num_load_insts                           0                       # Number of load instructions
system.cpu.num_mem_refs                             0                       # number of memory refs
system.cpu.num_store_insts                          0                       # Number of store instructions
system.cpu.num_vec_alu_accesses                     0                       # Number of vector alu accesses
system.cpu.num_vec_insts                            0                       # number of vector instructions
system.cpu.num_vec_register_reads                   0                       # number of times the vector registers were read
system.cpu.num_vec_register_writes                  0                       # number of times the vector registers were written
system.cpu.op_class::No_OpClass                     0                       # Class of executed instruction
system.cpu.op_class::IntAlu                         0                       # Class of executed instruction
system.cpu.op_class::IntMult                        0                       # Class of executed instruction
system.cpu.op_class::IntDiv                         0                       # Class of executed instruction
system.cpu.op_class::FloatAdd                       0                       # Class of executed instruction
system.cpu.op_class::FloatCmp                       0                       # Class of executed instruction
system.cpu.op_class::FloatCvt                       0                       # Class of executed instruction
system.cpu.op_class::FloatMult                      0                       # Class of executed instruction
system.cpu.op_class::FloatMultAcc                   0                       # Class of executed instruction
system.cpu.op_class::FloatDiv                       0                       # Class of executed instruction
system.cpu.op_class::FloatMisc                      0                       # Class of executed instruction
system.cpu.op_class::FloatSqrt                      0                       # Class of executed instruction
system.cpu.op_class::SimdAdd                        0                       # Class of executed instruction
system.cpu.op_class::SimdAddAcc                     0                       # Class of executed instruction
system.cpu.op_class::SimdAlu                        0                       # Class of executed instruction
system.cpu.op_class::SimdCmp                        0                       # Class of executed instruction
system.cpu.op_class::SimdCvt                        0                       # Class of executed instruction
system.cpu.op_class::SimdMisc                       0                       # Class of executed instruction
system.cpu.op_class::SimdMult                       0                       # Class of executed instruction
system.cpu.op_class::SimdMultAcc                    0                       # Class of executed instruction
system.cpu.op_class::SimdShift                      0                       # Class of executed instruction
system.cpu.op_class::SimdShiftAcc                   0                       # Class of executed instruction
system.cpu.op_class::SimdDiv                        0                       # Class of executed instruction
system.cpu.op_class::SimdSqrt                       0                       # Class of executed instruction
system.cpu.op_class::SimdFloatAdd                   0                       # Class of executed instruction
system.cpu.op_class::SimdFloatAlu                   0                       # Class of executed instruction
system.cpu.op_class::SimdFloatCmp                   0                       # Class of executed instruction
system.cpu.op_class::SimdFloatCvt                   0                       # Class of executed instruction
system.cpu.op_class::SimdFloatDiv                   0                       # Class of executed instruction
system.cpu.op_class::SimdFloatMisc                  0                       # Class of executed instruction
system.cpu.op_class::SimdFloatMult                  0                       # Class of executed instruction
system.cpu.op_class::SimdFloatMultAcc               0                       # Class of executed instruction
system.cpu.op_class::SimdFloatSqrt                  0                       # Class of executed instruction
system.cpu.op_class::SimdReduceAdd                  0                       # Class of executed instruction
system.cpu.op_class::SimdReduceAlu                  0                       # Class of executed instruction
system.cpu.op_class::SimdReduceCmp                  0                       # Class of executed instruction
system.cpu.op_class::SimdFloatReduceAdd             0                       # Class of executed instruction
system.cpu.op_class::SimdFloatReduceCmp             0                       # Class of executed instruction
system.cpu.op_class::SimdAes                        0                       # Class of executed instruction
system.cpu.op_class::SimdAesMix                     0                       # Class of executed instruction
system.cpu.op_class::SimdSha1Hash                   0                       # Class of executed instruction
system.cpu.op_class::SimdSha1Hash2                  0                       # Class of executed instruction
system.cpu.op_class::SimdSha256Hash                 0                       # Class of executed instruction
system.cpu.op_class::SimdSha256Hash2                0                       # Class of executed instruction
system.cpu.op_class::SimdShaSigma2                  0                       # Class of executed instruction
system.cpu.op_class::SimdShaSigma3                  0                       # Class of executed instruction
system.cpu.op_class::SimdPredAlu                    0                       # Class of executed instruction
system.cpu.op_class::MemRead                        0                       # Class of executed instruction
system.cpu.op_class::MemWrite                       0                       # Class of executed instruction
system.cpu.op_class::FloatMemRead                   0                       # Class of executed instruction
system.cpu.op_class::FloatMemWrite                  0                       # Class of executed instruction
system.cpu.op_class::IprAccess                      0                       # Class of executed instruction
system.cpu.op_class::InstPrefetch                   0                       # Class of executed instruction
system.cpu.op_class::total                          0                       # Class of executed instruction
system.cpu.workload.numSyscalls                     8                       # Number of system calls
system.membus.snoop_filter.hit_multi_requests            0                       # Number of requests hitting in the snoop filter with multiple (>1) holders of the requested data.
system.membus.snoop_filter.hit_multi_snoops            0                       # Number of snoops hitting in the snoop filter with multiple (>1) holders of the requested data.
system.membus.snoop_filter.hit_single_requests        19264                       # Number of requests hitting in the snoop filter with a single holder of the requested data.
system.membus.snoop_filter.hit_single_snoops            0                       # Number of snoops hitting in the snoop filter with a single holder of the requested data.
system.membus.snoop_filter.tot_requests         38718                       # Total number of requests made to the snoop filter.
system.membus.snoop_filter.tot_snoops               0                       # Total number of snoops made to the snoop filter.
system.switch_cpus.cc_regfile_reads          13671487                       # number of cc regfile reads
system.switch_cpus.cc_regfile_writes          8527341                       # number of cc regfile writes
system.switch_cpus.committedInsts            10000000                       # Number of Instructions Simulated
system.switch_cpus.committedOps              18867927                       # Number of Ops (including micro ops) Simulated
system.switch_cpus.cpi                       1.883801                       # CPI: Cycles Per Instruction
system.switch_cpus.cpi_total                 1.883801                       # CPI: Total CPI of All Threads
system.switch_cpus.fp_regfile_reads            369018                       # number of floating regfile reads
system.switch_cpus.fp_regfile_writes           229662                       # number of floating regfile writes
system.switch_cpus.idleCycles                  935312                       # Total number of cycles that the CPU has spent unscheduled due to idling
system.switch_cpus.iew.branchMispredicts       723141                       # Number of branch mispredicts detected at execute
system.switch_cpus.iew.exec_branches          3032902                       # Number of branches executed
system.switch_cpus.iew.exec_nop                     0                       # number of nop insts executed
system.switch_cpus.iew.exec_rate             1.674132                       # Inst execution rate
system.switch_cpus.iew.exec_refs              6406279                       # number of memory reference insts executed
system.switch_cpus.iew.exec_stores            2263927                       # Number of stores executed
system.switch_cpus.iew.exec_swp                     0                       # number of swp insts executed
system.switch_cpus.iew.iewBlockCycles         2289986                       # Number of cycles IEW is blocking
system.switch_cpus.iew.iewDispLoadInsts       5183591                       # Number of dispatched load instructions
system.switch_cpus.iew.iewDispNonSpecInsts         2088                       # Number of dispatched non-speculative instructions
system.switch_cpus.iew.iewDispSquashedInsts        72060                       # Number of squashed instructions skipped by dispatch
system.switch_cpus.iew.iewDispStoreInsts      2915375                       # Number of dispatched store instructions
system.switch_cpus.iew.iewDispatchedInsts     38582671                       # Number of instructions dispatched to IQ
system.switch_cpus.iew.iewExecLoadInsts       4142352                       # Number of load instructions executed
system.switch_cpus.iew.iewExecSquashedInsts      1374763                       # Number of squashed instructions skipped in execute
system.switch_cpus.iew.iewExecutedInsts      31537319                       # Number of executed instructions
system.switch_cpus.iew.iewIQFullEvents           1598                       # Number of times the IQ has become full, causing a stall
system.switch_cpus.iew.iewIdleCycles                0                       # Number of cycles IEW is idle
system.switch_cpus.iew.iewLSQFullEvents        546472                       # Number of times the LSQ has become full, causing a stall
system.switch_cpus.iew.iewSquashCycles         608978                       # Number of cycles IEW is squashing
system.switch_cpus.iew.iewUnblockCycles        548255                       # Number of cycles IEW is unblocking
system.switch_cpus.iew.memOrderViolationEvents         4618                       # Number of memory order violations
system.switch_cpus.iew.predictedNotTakenIncorrect       461432                       # Number of branches that were predicted not taken incorrectly
system.switch_cpus.iew.predictedTakenIncorrect       261709                       # Number of branches that were predicted taken incorrectly
system.switch_cpus.iew.wb_consumers          33506255                       # num instructions consuming a value
system.switch_cpus.iew.wb_count              30817392                       # cumulative count of insts written-back
system.switch_cpus.iew.wb_fanout             0.651836                       # average fanout of values written-back
system.switch_cpus.iew.wb_producers          21840572                       # num instructions producing a value
system.switch_cpus.iew.wb_rate               1.635915                       # insts written-back per cycle
system.switch_cpus.iew.wb_sent               31196040                       # cumulative count of insts sent to commit
system.switch_cpus.int_regfile_reads         42865711                       # number of integer regfile reads
system.switch_cpus.int_regfile_writes        24973055                       # number of integer regfile writes
system.switch_cpus.ipc                       0.530842                       # IPC: Instructions Per Cycle
system.switch_cpus.ipc_total                 0.530842                       # IPC: Total IPC of All Threads
system.switch_cpus.iq.FU_type_0::No_OpClass       812241      2.47%      2.47% # Type of FU issued
system.switch_cpus.iq.FU_type_0::IntAlu      25159558     76.44%     78.91% # Type of FU issued
system.switch_cpus.iq.FU_type_0::IntMult        19051      0.06%     78.97% # Type of FU issued
system.switch_cpus.iq.FU_type_0::IntDiv          2181      0.01%     78.98% # Type of FU issued
system.switch_cpus.iq.FU_type_0::FloatAdd        14455      0.04%     79.02% # Type of FU issued
system.switch_cpus.iq.FU_type_0::FloatCmp            0      0.00%     79.02% # Type of FU issued
system.switch_cpus.iq.FU_type_0::FloatCvt            0      0.00%     79.02% # Type of FU issued
system.switch_cpus.iq.FU_type_0::FloatMult            0      0.00%     79.02% # Type of FU issued
system.switch_cpus.iq.FU_type_0::FloatMultAcc            0      0.00%     79.02% # Type of FU issued
system.switch_cpus.iq.FU_type_0::FloatDiv            0      0.00%     79.02% # Type of FU issued
system.switch_cpus.iq.FU_type_0::FloatMisc            0      0.00%     79.02% # Type of FU issued
system.switch_cpus.iq.FU_type_0::FloatSqrt            0      0.00%     79.02% # Type of FU issued
system.switch_cpus.iq.FU_type_0::SimdAdd          873      0.00%     79.02% # Type of FU issued
system.switch_cpus.iq.FU_type_0::SimdAddAcc            0      0.00%     79.02% # Type of FU issued
system.switch_cpus.iq.FU_type_0::SimdAlu        19523      0.06%     79.08% # Type of FU issued
system.switch_cpus.iq.FU_type_0::SimdCmp           14      0.00%     79.08% # Type of FU issued
system.switch_cpus.iq.FU_type_0::SimdCvt         8734      0.03%     79.11% # Type of FU issued
system.switch_cpus.iq.FU_type_0::SimdMisc        36120      0.11%     79.22% # Type of FU issued
system.switch_cpus.iq.FU_type_0::SimdMult            0      0.00%     79.22% # Type of FU issued
system.switch_cpus.iq.FU_type_0::SimdMultAcc            0      0.00%     79.22% # Type of FU issued
system.switch_cpus.iq.FU_type_0::SimdShift           59      0.00%     79.22% # Type of FU issued
system.switch_cpus.iq.FU_type_0::SimdShiftAcc            0      0.00%     79.22% # Type of FU issued
system.switch_cpus.iq.FU_type_0::SimdDiv            0      0.00%     79.22% # Type of FU issued
system.switch_cpus.iq.FU_type_0::SimdSqrt            0      0.00%     79.22% # Type of FU issued
system.switch_cpus.iq.FU_type_0::SimdFloatAdd            3      0.00%     79.22% # Type of FU issued
system.switch_cpus.iq.FU_type_0::SimdFloatAlu            0      0.00%     79.22% # Type of FU issued
system.switch_cpus.iq.FU_type_0::SimdFloatCmp            0      0.00%     79.22% # Type of FU issued
system.switch_cpus.iq.FU_type_0::SimdFloatCvt           22      0.00%     79.22% # Type of FU issued
system.switch_cpus.iq.FU_type_0::SimdFloatDiv            2      0.00%     79.22% # Type of FU issued
system.switch_cpus.iq.FU_type_0::SimdFloatMisc            0      0.00%     79.22% # Type of FU issued
system.switch_cpus.iq.FU_type_0::SimdFloatMult            2      0.00%     79.22% # Type of FU issued
system.switch_cpus.iq.FU_type_0::SimdFloatMultAcc            0      0.00%     79.22% # Type of FU issued
system.switch_cpus.iq.FU_type_0::SimdFloatSqrt            0      0.00%     79.22% # Type of FU issued
system.switch_cpus.iq.FU_type_0::SimdReduceAdd            0      0.00%     79.22% # Type of FU issued
system.switch_cpus.iq.FU_type_0::SimdReduceAlu            0      0.00%     79.22% # Type of FU issued
system.switch_cpus.iq.FU_type_0::SimdReduceCmp            0      0.00%     79.22% # Type of FU issued
system.switch_cpus.iq.FU_type_0::SimdFloatReduceAdd            0      0.00%     79.22% # Type of FU issued
system.switch_cpus.iq.FU_type_0::SimdFloatReduceCmp            0      0.00%     79.22% # Type of FU issued
system.switch_cpus.iq.FU_type_0::SimdAes            0      0.00%     79.22% # Type of FU issued
system.switch_cpus.iq.FU_type_0::SimdAesMix            0      0.00%     79.22% # Type of FU issued
system.switch_cpus.iq.FU_type_0::SimdSha1Hash            0      0.00%     79.22% # Type of FU issued
system.switch_cpus.iq.FU_type_0::SimdSha1Hash2            0      0.00%     79.22% # Type of FU issued
system.switch_cpus.iq.FU_type_0::SimdSha256Hash            0      0.00%     79.22% # Type of FU issued
system.switch_cpus.iq.FU_type_0::SimdSha256Hash2            0      0.00%     79.22% # Type of FU issued
system.switch_cpus.iq.FU_type_0::SimdShaSigma2            0      0.00%     79.22% # Type of FU issued
system.switch_cpus.iq.FU_type_0::SimdShaSigma3            0      0.00%     79.22% # Type of FU issued
system.switch_cpus.iq.FU_type_0::SimdPredAlu            0      0.00%     79.22% # Type of FU issued
system.switch_cpus.iq.FU_type_0::MemRead      4264955     12.96%     92.18% # Type of FU issued
system.switch_cpus.iq.FU_type_0::MemWrite      2177423      6.62%     98.79% # Type of FU issued
system.switch_cpus.iq.FU_type_0::FloatMemRead       161445      0.49%     99.28% # Type of FU issued
system.switch_cpus.iq.FU_type_0::FloatMemWrite       235421      0.72%    100.00% # Type of FU issued
system.switch_cpus.iq.FU_type_0::IprAccess            0      0.00%    100.00% # Type of FU issued
system.switch_cpus.iq.FU_type_0::InstPrefetch            0      0.00%    100.00% # Type of FU issued
system.switch_cpus.iq.FU_type_0::total       32912082                       # Type of FU issued
system.switch_cpus.iq.fp_alu_accesses          537995                       # Number of floating point alu accesses
system.switch_cpus.iq.fp_inst_queue_reads      1031927                       # Number of floating instruction queue reads
system.switch_cpus.iq.fp_inst_queue_wakeup_accesses       456825                       # Number of floating instruction queue wakeup accesses
system.switch_cpus.iq.fp_inst_queue_writes       887184                       # Number of floating instruction queue writes
system.switch_cpus.iq.fu_busy_cnt              591789                       # FU busy when requested
system.switch_cpus.iq.fu_busy_rate           0.017981                       # FU busy rate (busy events/executed inst)
system.switch_cpus.iq.fu_full::No_OpClass            0      0.00%      0.00% # attempts to use FU when none available
system.switch_cpus.iq.fu_full::IntAlu          479685     81.06%     81.06% # attempts to use FU when none available
system.switch_cpus.iq.fu_full::IntMult              0      0.00%     81.06% # attempts to use FU when none available
system.switch_cpus.iq.fu_full::IntDiv               0      0.00%     81.06% # attempts to use FU when none available
system.switch_cpus.iq.fu_full::FloatAdd             0      0.00%     81.06% # attempts to use FU when none available
system.switch_cpus.iq.fu_full::FloatCmp             0      0.00%     81.06% # attempts to use FU when none available
system.switch_cpus.iq.fu_full::FloatCvt             0      0.00%     81.06% # attempts to use FU when none available
system.switch_cpus.iq.fu_full::FloatMult            0      0.00%     81.06% # attempts to use FU when none available
system.switch_cpus.iq.fu_full::FloatMultAcc            0      0.00%     81.06% # attempts to use FU when none available
system.switch_cpus.iq.fu_full::FloatDiv             0      0.00%     81.06% # attempts to use FU when none available
system.switch_cpus.iq.fu_full::FloatMisc            0      0.00%     81.06% # attempts to use FU when none available
system.switch_cpus.iq.fu_full::FloatSqrt            0      0.00%     81.06% # attempts to use FU when none available
system.switch_cpus.iq.fu_full::SimdAdd              0      0.00%     81.06% # attempts to use FU when none available
system.switch_cpus.iq.fu_full::SimdAddAcc            0      0.00%     81.06% # attempts to use FU when none available
system.switch_cpus.iq.fu_full::SimdAlu            950      0.16%     81.22% # attempts to use FU when none available
system.switch_cpus.iq.fu_full::SimdCmp              0      0.00%     81.22% # attempts to use FU when none available
system.switch_cpus.iq.fu_full::SimdCvt            117      0.02%     81.24% # attempts to use FU when none available
system.switch_cpus.iq.fu_full::SimdMisc            19      0.00%     81.24% # attempts to use FU when none available
system.switch_cpus.iq.fu_full::SimdMult             0      0.00%     81.24% # attempts to use FU when none available
system.switch_cpus.iq.fu_full::SimdMultAcc            0      0.00%     81.24% # attempts to use FU when none available
system.switch_cpus.iq.fu_full::SimdShift            9      0.00%     81.24% # attempts to use FU when none available
system.switch_cpus.iq.fu_full::SimdShiftAcc            0      0.00%     81.24% # attempts to use FU when none available
system.switch_cpus.iq.fu_full::SimdDiv              0      0.00%     81.24% # attempts to use FU when none available
system.switch_cpus.iq.fu_full::SimdSqrt             0      0.00%     81.24% # attempts to use FU when none available
system.switch_cpus.iq.fu_full::SimdFloatAdd            0      0.00%     81.24% # attempts to use FU when none available
system.switch_cpus.iq.fu_full::SimdFloatAlu            0      0.00%     81.24% # attempts to use FU when none available
system.switch_cpus.iq.fu_full::SimdFloatCmp            0      0.00%     81.24% # attempts to use FU when none available
system.switch_cpus.iq.fu_full::SimdFloatCvt            0      0.00%     81.24% # attempts to use FU when none available
system.switch_cpus.iq.fu_full::SimdFloatDiv            0      0.00%     81.24% # attempts to use FU when none available
system.switch_cpus.iq.fu_full::SimdFloatMisc            0      0.00%     81.24% # attempts to use FU when none available
system.switch_cpus.iq.fu_full::SimdFloatMult            0      0.00%     81.24% # attempts to use FU when none available
system.switch_cpus.iq.fu_full::SimdFloatMultAcc            0      0.00%     81.24% # attempts to use FU when none available
system.switch_cpus.iq.fu_full::SimdFloatSqrt            0      0.00%     81.24% # attempts to use FU when none available
system.switch_cpus.iq.fu_full::SimdReduceAdd            0      0.00%     81.24% # attempts to use FU when none available
system.switch_cpus.iq.fu_full::SimdReduceAlu            0      0.00%     81.24% # attempts to use FU when none available
system.switch_cpus.iq.fu_full::SimdReduceCmp            0      0.00%     81.24% # attempts to use FU when none available
system.switch_cpus.iq.fu_full::SimdFloatReduceAdd            0      0.00%     81.24% # attempts to use FU when none available
system.switch_cpus.iq.fu_full::SimdFloatReduceCmp            0      0.00%     81.24% # attempts to use FU when none available
system.switch_cpus.iq.fu_full::SimdAes              0      0.00%     81.24% # attempts to use FU when none available
system.switch_cpus.iq.fu_full::SimdAesMix            0      0.00%     81.24% # attempts to use FU when none available
system.switch_cpus.iq.fu_full::SimdSha1Hash            0      0.00%     81.24% # attempts to use FU when none available
system.switch_cpus.iq.fu_full::SimdSha1Hash2            0      0.00%     81.24% # attempts to use FU when none available
system.switch_cpus.iq.fu_full::SimdSha256Hash            0      0.00%     81.24% # attempts to use FU when none available
system.switch_cpus.iq.fu_full::SimdSha256Hash2            0      0.00%     81.24% # attempts to use FU when none available
system.switch_cpus.iq.fu_full::SimdShaSigma2            0      0.00%     81.24% # attempts to use FU when none available
system.switch_cpus.iq.fu_full::SimdShaSigma3            0      0.00%     81.24% # attempts to use FU when none available
system.switch_cpus.iq.fu_full::SimdPredAlu            0      0.00%     81.24% # attempts to use FU when none available
system.switch_cpus.iq.fu_full::MemRead          32384      5.47%     86.71% # attempts to use FU when none available
system.switch_cpus.iq.fu_full::MemWrite         29036      4.91%     91.62% # attempts to use FU when none available
system.switch_cpus.iq.fu_full::FloatMemRead        38514      6.51%     98.13% # attempts to use FU when none available
system.switch_cpus.iq.fu_full::FloatMemWrite        11075      1.87%    100.00% # attempts to use FU when none available
system.switch_cpus.iq.fu_full::IprAccess            0      0.00%    100.00% # attempts to use FU when none available
system.switch_cpus.iq.fu_full::InstPrefetch            0      0.00%    100.00% # attempts to use FU when none available
system.switch_cpus.iq.int_alu_accesses       32153635                       # Number of integer alu accesses
system.switch_cpus.iq.int_inst_queue_reads     83434255                       # Number of integer instruction queue reads
system.switch_cpus.iq.int_inst_queue_wakeup_accesses     30360567                       # Number of integer instruction queue wakeup accesses
system.switch_cpus.iq.int_inst_queue_writes     57414576                       # Number of integer instruction queue writes
system.switch_cpus.iq.iqInstsAdded           38575277                       # Number of instructions added to the IQ (excludes non-spec)
system.switch_cpus.iq.iqInstsIssued          32912082                       # Number of instructions issued
system.switch_cpus.iq.iqNonSpecInstsAdded         7394                       # Number of non-speculative instructions added to the IQ
system.switch_cpus.iq.iqSquashedInstsExamined     19714744                       # Number of squashed instructions iterated over during squash; mainly for profiling
system.switch_cpus.iq.iqSquashedInstsIssued       147530                       # Number of squashed instructions issued
system.switch_cpus.iq.iqSquashedNonSpecRemoved         5170                       # Number of squashed non-spec instructions that were removed
system.switch_cpus.iq.iqSquashedOperandsExamined     24157024                       # Number of squashed operands that are examined and possibly removed from graph
system.switch_cpus.iq.issued_per_cycle::samples     17902699                       # Number of insts issued each cycle
system.switch_cpus.iq.issued_per_cycle::mean     1.838387                       # Number of insts issued each cycle
system.switch_cpus.iq.issued_per_cycle::stdev     2.415104                       # Number of insts issued each cycle
system.switch_cpus.iq.issued_per_cycle::underflows            0      0.00%      0.00% # Number of insts issued each cycle
system.switch_cpus.iq.issued_per_cycle::0      9548841     53.34%     53.34% # Number of insts issued each cycle
system.switch_cpus.iq.issued_per_cycle::1      1239877      6.93%     60.26% # Number of insts issued each cycle
system.switch_cpus.iq.issued_per_cycle::2      1247328      6.97%     67.23% # Number of insts issued each cycle
system.switch_cpus.iq.issued_per_cycle::3      1210397      6.76%     73.99% # Number of insts issued each cycle
system.switch_cpus.iq.issued_per_cycle::4      1383328      7.73%     81.72% # Number of insts issued each cycle
system.switch_cpus.iq.issued_per_cycle::5      1097696      6.13%     87.85% # Number of insts issued each cycle
system.switch_cpus.iq.issued_per_cycle::6      1086398      6.07%     93.92% # Number of insts issued each cycle
system.switch_cpus.iq.issued_per_cycle::7       704494      3.94%     97.85% # Number of insts issued each cycle
system.switch_cpus.iq.issued_per_cycle::8       384340      2.15%    100.00% # Number of insts issued each cycle
system.switch_cpus.iq.issued_per_cycle::overflows            0      0.00%    100.00% # Number of insts issued each cycle
system.switch_cpus.iq.issued_per_cycle::min_value            0                       # Number of insts issued each cycle
system.switch_cpus.iq.issued_per_cycle::max_value            8                       # Number of insts issued each cycle
system.switch_cpus.iq.issued_per_cycle::total     17902699                       # Number of insts issued each cycle
system.switch_cpus.iq.rate                   1.747110                       # Inst issue rate
system.switch_cpus.iq.vec_alu_accesses              0                       # Number of vector alu accesses
system.switch_cpus.iq.vec_inst_queue_reads            0                       # Number of vector instruction queue reads
system.switch_cpus.iq.vec_inst_queue_wakeup_accesses            0                       # Number of vector instruction queue wakeup accesses
system.switch_cpus.iq.vec_inst_queue_writes            0                       # Number of vector instruction queue writes
system.switch_cpus.memDep0.conflictingLoads       184833                       # Number of conflicting loads.
system.switch_cpus.memDep0.conflictingStores       226511                       # Number of conflicting stores.
system.switch_cpus.memDep0.insertedLoads      5183591                       # Number of loads inserted to the mem dependence unit.
system.switch_cpus.memDep0.insertedStores      2915375                       # Number of stores inserted to the mem dependence unit.
system.switch_cpus.misc_regfile_reads        14090132                       # number of misc regfile reads
system.switch_cpus.numCycles                 18838011                       # number of cpu cycles simulated
system.switch_cpus.numWorkItemsCompleted            0                       # number of work items this cpu completed
system.switch_cpus.numWorkItemsStarted              0                       # number of work items this cpu started
system.switch_cpus.timesIdled                   73076                       # Number of times that the entire CPU went into an idle state and unscheduled itself
system.tol2bus.snoop_filter.hit_multi_requests         1024                       # Number of requests hitting in the snoop filter with multiple (>1) holders of the requested data.
system.tol2bus.snoop_filter.hit_multi_snoops            9                       # Number of snoops hitting in the snoop filter with multiple (>1) holders of the requested data.
system.tol2bus.snoop_filter.hit_single_requests       261968                       # Number of requests hitting in the snoop filter with a single holder of the requested data.
system.tol2bus.snoop_filter.hit_single_snoops         1018                       # Number of snoops hitting in the snoop filter with a single holder of the requested data.
system.tol2bus.snoop_filter.tot_requests       524326                       # Total number of requests made to the snoop filter.
system.tol2bus.snoop_filter.tot_snoops           1027                       # Total number of snoops made to the snoop filter.
system.clk_domain.clock                          1000                       # Clock period in ticks
system.cpu.branchPred.lookups                       0                       # Number of BP lookups
system.cpu.branchPred.condPredicted                 0                       # Number of conditional branches predicted
system.cpu.branchPred.condIncorrect                 0                       # Number of conditional branches incorrect
system.cpu.branchPred.BTBLookups                    0                       # Number of BTB lookups
system.cpu.branchPred.BTBHits                       0                       # Number of BTB hits
system.cpu.branchPred.BTBHitPct                   nan                       # BTB Hit Percentage
system.cpu.branchPred.RASUsed                       0                       # Number of times the RAS was used to get a target.
system.cpu.branchPred.RASIncorrect                  0                       # Number of incorrect RAS predictions.
system.cpu.branchPred.indirectLookups               0                       # Number of indirect predictor lookups.
system.cpu.branchPred.indirectHits                  0                       # Number of indirect target hits.
system.cpu.branchPred.indirectMisses                0                       # Number of indirect misses.
system.cpu.branchPred.indirectMispredicted            0                       # Number of mispredicted indirect branches.
system.cpu.dcache.demand_hits::.switch_cpus.data      5171981                       # number of demand (read+write) hits
system.cpu.dcache.demand_hits::total          5171981                       # number of demand (read+write) hits
system.cpu.dcache.overall_hits::.switch_cpus.data      5200393                       # number of overall hits
system.cpu.dcache.overall_hits::total         5200393                       # number of overall hits
system.cpu.dcache.demand_misses::.switch_cpus.data        65926                       # number of demand (read+write) misses
system.cpu.dcache.demand_misses::total          65926                       # number of demand (read+write) misses
system.cpu.dcache.overall_misses::.switch_cpus.data        67843                       # number of overall misses
system.cpu.dcache.overall_misses::total         67843                       # number of overall misses
system.cpu.dcache.demand_miss_latency::.switch_cpus.data   1773071498                       # number of demand (read+write) miss cycles
system.cpu.dcache.demand_miss_latency::total   1773071498                       # number of demand (read+write) miss cycles
system.cpu.dcache.overall_miss_latency::.switch_cpus.data   1773071498                       # number of overall miss cycles
system.cpu.dcache.overall_miss_latency::total   1773071498                       # number of overall miss cycles
system.cpu.dcache.demand_accesses::.switch_cpus.data      5237907                       # number of demand (read+write) accesses
system.cpu.dcache.demand_accesses::total      5237907                       # number of demand (read+write) accesses
system.cpu.dcache.overall_accesses::.switch_cpus.data      5268236                       # number of overall (read+write) accesses
system.cpu.dcache.overall_accesses::total      5268236                       # number of overall (read+write) accesses
system.cpu.dcache.demand_miss_rate::.switch_cpus.data     0.012586                       # miss rate for demand accesses
system.cpu.dcache.demand_miss_rate::total     0.012586                       # miss rate for demand accesses
system.cpu.dcache.overall_miss_rate::.switch_cpus.data     0.012878                       # miss rate for overall accesses
system.cpu.dcache.overall_miss_rate::total     0.012878                       # miss rate for overall accesses
system.cpu.dcache.demand_avg_miss_latency::.switch_cpus.data 26894.874526                       # average overall miss latency
system.cpu.dcache.demand_avg_miss_latency::total 26894.874526                       # average overall miss latency
system.cpu.dcache.overall_avg_miss_latency::.switch_cpus.data 26134.921775                       # average overall miss latency
system.cpu.dcache.overall_avg_miss_latency::total 26134.921775                       # average overall miss latency
system.cpu.dcache.blocked_cycles::no_mshrs         2565                       # number of cycles access was blocked
system.cpu.dcache.blocked_cycles::no_targets          272                       # number of cycles access was blocked
system.cpu.dcache.blocked::no_mshrs               144                       # number of cycles access was blocked
system.cpu.dcache.blocked::no_targets               3                       # number of cycles access was blocked
system.cpu.dcache.avg_blocked_cycles::no_mshrs    17.812500                       # average number of cycles each access was blocked
system.cpu.dcache.avg_blocked_cycles::no_targets    90.666667                       # average number of cycles each access was blocked
system.cpu.dcache.writebacks::.writebacks        37777                       # number of writebacks
system.cpu.dcache.writebacks::total             37777                       # number of writebacks
system.cpu.dcache.demand_mshr_hits::.switch_cpus.data        16383                       # number of demand (read+write) MSHR hits
system.cpu.dcache.demand_mshr_hits::total        16383                       # number of demand (read+write) MSHR hits
system.cpu.dcache.overall_mshr_hits::.switch_cpus.data        16383                       # number of overall MSHR hits
system.cpu.dcache.overall_mshr_hits::total        16383                       # number of overall MSHR hits
system.cpu.dcache.demand_mshr_misses::.switch_cpus.data        49543                       # number of demand (read+write) MSHR misses
system.cpu.dcache.demand_mshr_misses::total        49543                       # number of demand (read+write) MSHR misses
system.cpu.dcache.overall_mshr_misses::.switch_cpus.data        50226                       # number of overall MSHR misses
system.cpu.dcache.overall_mshr_misses::total        50226                       # number of overall MSHR misses
system.cpu.dcache.demand_mshr_miss_latency::.switch_cpus.data   1436532998                       # number of demand (read+write) MSHR miss cycles
system.cpu.dcache.demand_mshr_miss_latency::total   1436532998                       # number of demand (read+write) MSHR miss cycles
system.cpu.dcache.overall_mshr_miss_latency::.switch_cpus.data   1478157498                       # number of overall MSHR miss cycles
system.cpu.dcache.overall_mshr_miss_latency::total   1478157498                       # number of overall MSHR miss cycles
system.cpu.dcache.demand_mshr_miss_rate::.switch_cpus.data     0.009459                       # mshr miss rate for demand accesses
system.cpu.dcache.demand_mshr_miss_rate::total     0.009459                       # mshr miss rate for demand accesses
system.cpu.dcache.overall_mshr_miss_rate::.switch_cpus.data     0.009534                       # mshr miss rate for overall accesses
system.cpu.dcache.overall_mshr_miss_rate::total     0.009534                       # mshr miss rate for overall accesses
system.cpu.dcache.demand_avg_mshr_miss_latency::.switch_cpus.data 28995.680480                       # average overall mshr miss latency
system.cpu.dcache.demand_avg_mshr_miss_latency::total 28995.680480                       # average overall mshr miss latency
system.cpu.dcache.overall_avg_mshr_miss_latency::.switch_cpus.data 29430.125791                       # average overall mshr miss latency
system.cpu.dcache.overall_avg_mshr_miss_latency::total 29430.125791                       # average overall mshr miss latency
system.cpu.dcache.replacements                  49886                       # number of replacements
system.cpu.dcache.ReadReq_hits::.switch_cpus.data      3809235                       # number of ReadReq hits
system.cpu.dcache.ReadReq_hits::total         3809235                       # number of ReadReq hits
system.cpu.dcache.ReadReq_misses::.switch_cpus.data        50058                       # number of ReadReq misses
system.cpu.dcache.ReadReq_misses::total         50058                       # number of ReadReq misses
system.cpu.dcache.ReadReq_miss_latency::.switch_cpus.data    921772500                       # number of ReadReq miss cycles
system.cpu.dcache.ReadReq_miss_latency::total    921772500                       # number of ReadReq miss cycles
system.cpu.dcache.ReadReq_accesses::.switch_cpus.data      3859293                       # number of ReadReq accesses(hits+misses)
system.cpu.dcache.ReadReq_accesses::total      3859293                       # number of ReadReq accesses(hits+misses)
system.cpu.dcache.ReadReq_miss_rate::.switch_cpus.data     0.012971                       # miss rate for ReadReq accesses
system.cpu.dcache.ReadReq_miss_rate::total     0.012971                       # miss rate for ReadReq accesses
system.cpu.dcache.ReadReq_avg_miss_latency::.switch_cpus.data 18414.089656                       # average ReadReq miss latency
system.cpu.dcache.ReadReq_avg_miss_latency::total 18414.089656                       # average ReadReq miss latency
system.cpu.dcache.ReadReq_mshr_hits::.switch_cpus.data        15711                       # number of ReadReq MSHR hits
system.cpu.dcache.ReadReq_mshr_hits::total        15711                       # number of ReadReq MSHR hits
system.cpu.dcache.ReadReq_mshr_misses::.switch_cpus.data        34347                       # number of ReadReq MSHR misses
system.cpu.dcache.ReadReq_mshr_misses::total        34347                       # number of ReadReq MSHR misses
system.cpu.dcache.ReadReq_mshr_miss_latency::.switch_cpus.data    611462500                       # number of ReadReq MSHR miss cycles
system.cpu.dcache.ReadReq_mshr_miss_latency::total    611462500                       # number of ReadReq MSHR miss cycles
system.cpu.dcache.ReadReq_mshr_miss_rate::.switch_cpus.data     0.008900                       # mshr miss rate for ReadReq accesses
system.cpu.dcache.ReadReq_mshr_miss_rate::total     0.008900                       # mshr miss rate for ReadReq accesses
system.cpu.dcache.ReadReq_avg_mshr_miss_latency::.switch_cpus.data 17802.500946                       # average ReadReq mshr miss latency
system.cpu.dcache.ReadReq_avg_mshr_miss_latency::total 17802.500946                       # average ReadReq mshr miss latency
system.cpu.dcache.WriteReq_hits::.switch_cpus.data      1362746                       # number of WriteReq hits
system.cpu.dcache.WriteReq_hits::total        1362746                       # number of WriteReq hits
system.cpu.dcache.WriteReq_misses::.switch_cpus.data        15868                       # number of WriteReq misses
system.cpu.dcache.WriteReq_misses::total        15868                       # number of WriteReq misses
system.cpu.dcache.WriteReq_miss_latency::.switch_cpus.data    851298998                       # number of WriteReq miss cycles
system.cpu.dcache.WriteReq_miss_latency::total    851298998                       # number of WriteReq miss cycles
system.cpu.dcache.WriteReq_accesses::.switch_cpus.data      1378614                       # number of WriteReq accesses(hits+misses)
system.cpu.dcache.WriteReq_accesses::total      1378614                       # number of WriteReq accesses(hits+misses)
system.cpu.dcache.WriteReq_miss_rate::.switch_cpus.data     0.011510                       # miss rate for WriteReq accesses
system.cpu.dcache.WriteReq_miss_rate::total     0.011510                       # miss rate for WriteReq accesses
system.cpu.dcache.WriteReq_avg_miss_latency::.switch_cpus.data 53648.789892                       # average WriteReq miss latency
system.cpu.dcache.WriteReq_avg_miss_latency::total 53648.789892                       # average WriteReq miss latency
system.cpu.dcache.WriteReq_mshr_hits::.switch_cpus.data          672                       # number of WriteReq MSHR hits
system.cpu.dcache.WriteReq_mshr_hits::total          672                       # number of WriteReq MSHR hits
system.cpu.dcache.WriteReq_mshr_misses::.switch_cpus.data        15196                       # number of WriteReq MSHR misses
system.cpu.dcache.WriteReq_mshr_misses::total        15196                       # number of WriteReq MSHR misses
system.cpu.dcache.WriteReq_mshr_miss_latency::.switch_cpus.data    825070498                       # number of WriteReq MSHR miss cycles
system.cpu.dcache.WriteReq_mshr_miss_latency::total    825070498                       # number of WriteReq MSHR miss cycles
system.cpu.dcache.WriteReq_mshr_miss_rate::.switch_cpus.data     0.011023                       # mshr miss rate for WriteReq accesses
system.cpu.dcache.WriteReq_mshr_miss_rate::total     0.011023                       # mshr miss rate for WriteReq accesses
system.cpu.dcache.WriteReq_avg_mshr_miss_latency::.switch_cpus.data 54295.242037                       # average WriteReq mshr miss latency
system.cpu.dcache.WriteReq_avg_mshr_miss_latency::total 54295.242037                       # average WriteReq mshr miss latency
system.cpu.dcache.SoftPFReq_hits::.switch_cpus.data        28412                       # number of SoftPFReq hits
system.cpu.dcache.SoftPFReq_hits::total         28412                       # number of SoftPFReq hits
system.cpu.dcache.SoftPFReq_misses::.switch_cpus.data         1917                       # number of SoftPFReq misses
system.cpu.dcache.SoftPFReq_misses::total         1917                       # number of SoftPFReq misses
system.cpu.dcache.SoftPFReq_accesses::.switch_cpus.data        30329                       # number of SoftPFReq accesses(hits+misses)
system.cpu.dcache.SoftPFReq_accesses::total        30329                       # number of SoftPFReq accesses(hits+misses)
system.cpu.dcache.SoftPFReq_miss_rate::.switch_cpus.data     0.063207                       # miss rate for SoftPFReq accesses
system.cpu.dcache.SoftPFReq_miss_rate::total     0.063207                       # miss rate for SoftPFReq accesses
system.cpu.dcache.SoftPFReq_mshr_misses::.switch_cpus.data          683                       # number of SoftPFReq MSHR misses
system.cpu.dcache.SoftPFReq_mshr_misses::total          683                       # number of SoftPFReq MSHR misses
system.cpu.dcache.SoftPFReq_mshr_miss_latency::.switch_cpus.data     41624500                       # number of SoftPFReq MSHR miss cycles
system.cpu.dcache.SoftPFReq_mshr_miss_latency::total     41624500                       # number of SoftPFReq MSHR miss cycles
system.cpu.dcache.SoftPFReq_mshr_miss_rate::.switch_cpus.data     0.022520                       # mshr miss rate for SoftPFReq accesses
system.cpu.dcache.SoftPFReq_mshr_miss_rate::total     0.022520                       # mshr miss rate for SoftPFReq accesses
system.cpu.dcache.SoftPFReq_avg_mshr_miss_latency::.switch_cpus.data 60943.631040                       # average SoftPFReq mshr miss latency
system.cpu.dcache.SoftPFReq_avg_mshr_miss_latency::total 60943.631040                       # average SoftPFReq mshr miss latency
system.cpu.dcache.power_state.pwrStateResidencyTicks::UNDEFINED  10489175500                       # Cumulative time (in ticks) in various power states
system.cpu.dcache.tags.tagsinuse                 1024                       # Cycle average of tags in use
system.cpu.dcache.tags.total_refs             5408724                       # Total number of references to valid blocks.
system.cpu.dcache.tags.sampled_refs             50910                       # Sample count of references to valid blocks.
system.cpu.dcache.tags.avg_refs            106.240896                       # Average number of references to valid blocks.
system.cpu.dcache.tags.warmup_cycle                 0                       # Cycle when the warmup percentage was hit.
system.cpu.dcache.tags.occ_blocks::.cpu.data    39.737955                       # Average occupied blocks per requestor
system.cpu.dcache.tags.occ_blocks::.switch_cpus.data   984.262045                       # Average occupied blocks per requestor
system.cpu.dcache.tags.occ_percent::.cpu.data     0.038807                       # Average percentage of cache occupancy
system.cpu.dcache.tags.occ_percent::.switch_cpus.data     0.961193                       # Average percentage of cache occupancy
system.cpu.dcache.tags.occ_percent::total            1                       # Average percentage of cache occupancy
system.cpu.dcache.tags.occ_task_id_blocks::1024         1024                       # Occupied blocks per task id
system.cpu.dcache.tags.age_task_id_blocks_1024::0           39                       # Occupied blocks per task id
system.cpu.dcache.tags.age_task_id_blocks_1024::1          218                       # Occupied blocks per task id
system.cpu.dcache.tags.age_task_id_blocks_1024::2          749                       # Occupied blocks per task id
system.cpu.dcache.tags.age_task_id_blocks_1024::3           18                       # Occupied blocks per task id
system.cpu.dcache.tags.occ_task_id_percent::1024            1                       # Percentage of cache occupancy per task id
system.cpu.dcache.tags.tag_accesses          10586358                       # Number of tag accesses
system.cpu.dcache.tags.data_accesses         10586358                       # Number of data accesses
system.cpu.dcache.tags.power_state.pwrStateResidencyTicks::UNDEFINED  10489175500                       # Cumulative time (in ticks) in various power states
system.cpu.dtb.rdAccesses                           0                       # TLB accesses on read requests
system.cpu.dtb.wrAccesses                           0                       # TLB accesses on write requests
system.cpu.dtb.rdMisses                             0                       # TLB misses on read requests
system.cpu.dtb.wrMisses                             0                       # TLB misses on write requests
system.cpu.dtb.walker.power_state.pwrStateResidencyTicks::UNDEFINED  10489175500                       # Cumulative time (in ticks) in various power states
system.cpu.dtb_walker_cache.blocked_cycles::no_mshrs            0                       # number of cycles access was blocked
system.cpu.dtb_walker_cache.blocked_cycles::no_targets            0                       # number of cycles access was blocked
system.cpu.dtb_walker_cache.blocked::no_mshrs            0                       # number of cycles access was blocked
system.cpu.dtb_walker_cache.blocked::no_targets            0                       # number of cycles access was blocked
system.cpu.dtb_walker_cache.avg_blocked_cycles::no_mshrs          nan                       # average number of cycles each access was blocked
system.cpu.dtb_walker_cache.avg_blocked_cycles::no_targets          nan                       # average number of cycles each access was blocked
system.cpu.dtb_walker_cache.replacements            0                       # number of replacements
system.cpu.dtb_walker_cache.power_state.pwrStateResidencyTicks::UNDEFINED  10489175500                       # Cumulative time (in ticks) in various power states
system.cpu.dtb_walker_cache.tags.tagsinuse            0                       # Cycle average of tags in use
system.cpu.dtb_walker_cache.tags.total_refs            0                       # Total number of references to valid blocks.
system.cpu.dtb_walker_cache.tags.sampled_refs            0                       # Sample count of references to valid blocks.
system.cpu.dtb_walker_cache.tags.avg_refs          nan                       # Average number of references to valid blocks.
system.cpu.dtb_walker_cache.tags.warmup_cycle            0                       # Cycle when the warmup percentage was hit.
system.cpu.dtb_walker_cache.tags.tag_accesses            0                       # Number of tag accesses
system.cpu.dtb_walker_cache.tags.data_accesses            0                       # Number of data accesses
system.cpu.dtb_walker_cache.tags.power_state.pwrStateResidencyTicks::UNDEFINED  10489175500                       # Cumulative time (in ticks) in various power states
system.cpu.icache.demand_hits::.switch_cpus.inst      3816407                       # number of demand (read+write) hits
system.cpu.icache.demand_hits::total          3816407                       # number of demand (read+write) hits
system.cpu.icache.overall_hits::.switch_cpus.inst      3816407                       # number of overall hits
system.cpu.icache.overall_hits::total         3816407                       # number of overall hits
system.cpu.icache.demand_misses::.switch_cpus.inst       239755                       # number of demand (read+write) misses
system.cpu.icache.demand_misses::total         239755                       # number of demand (read+write) misses
system.cpu.icache.overall_misses::.switch_cpus.inst       239755                       # number of overall misses
system.cpu.icache.overall_misses::total        239755                       # number of overall misses
system.cpu.icache.demand_miss_latency::.switch_cpus.inst   3528322990                       # number of demand (read+write) miss cycles
system.cpu.icache.demand_miss_latency::total   3528322990                       # number of demand (read+write) miss cycles
system.cpu.icache.overall_miss_latency::.switch_cpus.inst   3528322990                       # number of overall miss cycles
system.cpu.icache.overall_miss_latency::total   3528322990                       # number of overall miss cycles
system.cpu.icache.demand_accesses::.switch_cpus.inst      4056162                       # number of demand (read+write) accesses
system.cpu.icache.demand_accesses::total      4056162                       # number of demand (read+write) accesses
system.cpu.icache.overall_accesses::.switch_cpus.inst      4056162                       # number of overall (read+write) accesses
system.cpu.icache.overall_accesses::total      4056162                       # number of overall (read+write) accesses
system.cpu.icache.demand_miss_rate::.switch_cpus.inst     0.059109                       # miss rate for demand accesses
system.cpu.icache.demand_miss_rate::total     0.059109                       # miss rate for demand accesses
system.cpu.icache.overall_miss_rate::.switch_cpus.inst     0.059109                       # miss rate for overall accesses
system.cpu.icache.overall_miss_rate::total     0.059109                       # miss rate for overall accesses
system.cpu.icache.demand_avg_miss_latency::.switch_cpus.inst 14716.368751                       # average overall miss latency
system.cpu.icache.demand_avg_miss_latency::total 14716.368751                       # average overall miss latency
system.cpu.icache.overall_avg_miss_latency::.switch_cpus.inst 14716.368751                       # average overall miss latency
system.cpu.icache.overall_avg_miss_latency::total 14716.368751                       # average overall miss latency
system.cpu.icache.blocked_cycles::no_mshrs         4930                       # number of cycles access was blocked
system.cpu.icache.blocked_cycles::no_targets            0                       # number of cycles access was blocked
system.cpu.icache.blocked::no_mshrs               198                       # number of cycles access was blocked
system.cpu.icache.blocked::no_targets               0                       # number of cycles access was blocked
system.cpu.icache.avg_blocked_cycles::no_mshrs    24.898990                       # average number of cycles each access was blocked
system.cpu.icache.avg_blocked_cycles::no_targets          nan                       # average number of cycles each access was blocked
system.cpu.icache.writebacks::.writebacks       211978                       # number of writebacks
system.cpu.icache.writebacks::total            211978                       # number of writebacks
system.cpu.icache.demand_mshr_hits::.switch_cpus.inst        27519                       # number of demand (read+write) MSHR hits
system.cpu.icache.demand_mshr_hits::total        27519                       # number of demand (read+write) MSHR hits
system.cpu.icache.overall_mshr_hits::.switch_cpus.inst        27519                       # number of overall MSHR hits
system.cpu.icache.overall_mshr_hits::total        27519                       # number of overall MSHR hits
system.cpu.icache.demand_mshr_misses::.switch_cpus.inst       212236                       # number of demand (read+write) MSHR misses
system.cpu.icache.demand_mshr_misses::total       212236                       # number of demand (read+write) MSHR misses
system.cpu.icache.overall_mshr_misses::.switch_cpus.inst       212236                       # number of overall MSHR misses
system.cpu.icache.overall_mshr_misses::total       212236                       # number of overall MSHR misses
system.cpu.icache.demand_mshr_miss_latency::.switch_cpus.inst   3060017490                       # number of demand (read+write) MSHR miss cycles
system.cpu.icache.demand_mshr_miss_latency::total   3060017490                       # number of demand (read+write) MSHR miss cycles
system.cpu.icache.overall_mshr_miss_latency::.switch_cpus.inst   3060017490                       # number of overall MSHR miss cycles
system.cpu.icache.overall_mshr_miss_latency::total   3060017490                       # number of overall MSHR miss cycles
system.cpu.icache.demand_mshr_miss_rate::.switch_cpus.inst     0.052324                       # mshr miss rate for demand accesses
system.cpu.icache.demand_mshr_miss_rate::total     0.052324                       # mshr miss rate for demand accesses
system.cpu.icache.overall_mshr_miss_rate::.switch_cpus.inst     0.052324                       # mshr miss rate for overall accesses
system.cpu.icache.overall_mshr_miss_rate::total     0.052324                       # mshr miss rate for overall accesses
system.cpu.icache.demand_avg_mshr_miss_latency::.switch_cpus.inst 14417.994544                       # average overall mshr miss latency
system.cpu.icache.demand_avg_mshr_miss_latency::total 14417.994544                       # average overall mshr miss latency
system.cpu.icache.overall_avg_mshr_miss_latency::.switch_cpus.inst 14417.994544                       # average overall mshr miss latency
system.cpu.icache.overall_avg_mshr_miss_latency::total 14417.994544                       # average overall mshr miss latency
system.cpu.icache.replacements                 211978                       # number of replacements
system.cpu.icache.ReadReq_hits::.switch_cpus.inst      3816407                       # number of ReadReq hits
system.cpu.icache.ReadReq_hits::total         3816407                       # number of ReadReq hits
system.cpu.icache.ReadReq_misses::.switch_cpus.inst       239755                       # number of ReadReq misses
system.cpu.icache.ReadReq_misses::total        239755                       # number of ReadReq misses
system.cpu.icache.ReadReq_miss_latency::.switch_cpus.inst   3528322990                       # number of ReadReq miss cycles
system.cpu.icache.ReadReq_miss_latency::total   3528322990                       # number of ReadReq miss cycles
system.cpu.icache.ReadReq_accesses::.switch_cpus.inst      4056162                       # number of ReadReq accesses(hits+misses)
system.cpu.icache.ReadReq_accesses::total      4056162                       # number of ReadReq accesses(hits+misses)
system.cpu.icache.ReadReq_miss_rate::.switch_cpus.inst     0.059109                       # miss rate for ReadReq accesses
system.cpu.icache.ReadReq_miss_rate::total     0.059109                       # miss rate for ReadReq accesses
system.cpu.icache.ReadReq_avg_miss_latency::.switch_cpus.inst 14716.368751                       # average ReadReq miss latency
system.cpu.icache.ReadReq_avg_miss_latency::total 14716.368751                       # average ReadReq miss latency
system.cpu.icache.ReadReq_mshr_hits::.switch_cpus.inst        27519                       # number of ReadReq MSHR hits
system.cpu.icache.ReadReq_mshr_hits::total        27519                       # number of ReadReq MSHR hits
system.cpu.icache.ReadReq_mshr_misses::.switch_cpus.inst       212236                       # number of ReadReq MSHR misses
system.cpu.icache.ReadReq_mshr_misses::total       212236                       # number of ReadReq MSHR misses
system.cpu.icache.ReadReq_mshr_miss_latency::.switch_cpus.inst   3060017490                       # number of ReadReq MSHR miss cycles
system.cpu.icache.ReadReq_mshr_miss_latency::total   3060017490                       # number of ReadReq MSHR miss cycles
system.cpu.icache.ReadReq_mshr_miss_rate::.switch_cpus.inst     0.052324                       # mshr miss rate for ReadReq accesses
system.cpu.icache.ReadReq_mshr_miss_rate::total     0.052324                       # mshr miss rate for ReadReq accesses
system.cpu.icache.ReadReq_avg_mshr_miss_latency::.switch_cpus.inst 14417.994544                       # average ReadReq mshr miss latency
system.cpu.icache.ReadReq_avg_mshr_miss_latency::total 14417.994544                       # average ReadReq mshr miss latency
system.cpu.icache.power_state.pwrStateResidencyTicks::UNDEFINED  10489175500                       # Cumulative time (in ticks) in various power states
system.cpu.icache.tags.tagsinuse          1023.307326                       # Cycle average of tags in use
system.cpu.icache.tags.total_refs             4327398                       # Total number of references to valid blocks.
system.cpu.icache.tags.sampled_refs            213250                       # Sample count of references to valid blocks.
system.cpu.icache.tags.avg_refs             20.292605                       # Average number of references to valid blocks.
system.cpu.icache.tags.warmup_cycle                 0                       # Cycle when the warmup percentage was hit.
system.cpu.icache.tags.occ_blocks::.cpu.inst    37.022589                       # Average occupied blocks per requestor
system.cpu.icache.tags.occ_blocks::.switch_cpus.inst   986.284738                       # Average occupied blocks per requestor
system.cpu.icache.tags.occ_percent::.cpu.inst     0.036155                       # Average percentage of cache occupancy
system.cpu.icache.tags.occ_percent::.switch_cpus.inst     0.963169                       # Average percentage of cache occupancy
system.cpu.icache.tags.occ_percent::total     0.999324                       # Average percentage of cache occupancy
system.cpu.icache.tags.occ_task_id_blocks::1024         1024                       # Occupied blocks per task id
system.cpu.icache.tags.age_task_id_blocks_1024::0          294                       # Occupied blocks per task id
system.cpu.icache.tags.age_task_id_blocks_1024::1          418                       # Occupied blocks per task id
system.cpu.icache.tags.age_task_id_blocks_1024::2          274                       # Occupied blocks per task id
system.cpu.icache.tags.age_task_id_blocks_1024::3           36                       # Occupied blocks per task id
system.cpu.icache.tags.age_task_id_blocks_1024::4            2                       # Occupied blocks per task id
system.cpu.icache.tags.occ_task_id_percent::1024            1                       # Percentage of cache occupancy per task id
system.cpu.icache.tags.tag_accesses           8324559                       # Number of tag accesses
system.cpu.icache.tags.data_accesses          8324559                       # Number of data accesses
system.cpu.icache.tags.power_state.pwrStateResidencyTicks::UNDEFINED  10489175500                       # Cumulative time (in ticks) in various power states
system.cpu.interrupts.clk_domain.clock           8000                       # Clock period in ticks
system.cpu.itb.rdAccesses                           0                       # TLB accesses on read requests
system.cpu.itb.wrAccesses                           0                       # TLB accesses on write requests
system.cpu.itb.rdMisses                             0                       # TLB misses on read requests
system.cpu.itb.wrMisses                             0                       # TLB misses on write requests
system.cpu.itb.walker.power_state.pwrStateResidencyTicks::UNDEFINED  10489175500                       # Cumulative time (in ticks) in various power states
system.cpu.itb_walker_cache.blocked_cycles::no_mshrs            0                       # number of cycles access was blocked
system.cpu.itb_walker_cache.blocked_cycles::no_targets            0                       # number of cycles access was blocked
system.cpu.itb_walker_cache.blocked::no_mshrs            0                       # number of cycles access was blocked
system.cpu.itb_walker_cache.blocked::no_targets            0                       # number of cycles access was blocked
system.cpu.itb_walker_cache.avg_blocked_cycles::no_mshrs          nan                       # average number of cycles each access was blocked
system.cpu.itb_walker_cache.avg_blocked_cycles::no_targets          nan                       # average number of cycles each access was blocked
system.cpu.itb_walker_cache.replacements            0                       # number of replacements
system.cpu.itb_walker_cache.power_state.pwrStateResidencyTicks::UNDEFINED  10489175500                       # Cumulative time (in ticks) in various power states
system.cpu.itb_walker_cache.tags.tagsinuse            0                       # Cycle average of tags in use
system.cpu.itb_walker_cache.tags.total_refs            0                       # Total number of references to valid blocks.
system.cpu.itb_walker_cache.tags.sampled_refs            0                       # Sample count of references to valid blocks.
system.cpu.itb_walker_cache.tags.avg_refs          nan                       # Average number of references to valid blocks.
system.cpu.itb_walker_cache.tags.warmup_cycle            0                       # Cycle when the warmup percentage was hit.
system.cpu.itb_walker_cache.tags.tag_accesses            0                       # Number of tag accesses
system.cpu.itb_walker_cache.tags.data_accesses            0                       # Number of data accesses
system.cpu.itb_walker_cache.tags.power_state.pwrStateResidencyTicks::UNDEFINED  10489175500                       # Cumulative time (in ticks) in various power states
system.cpu.power_state.pwrStateResidencyTicks::OFF   9419005500                       # Cumulative time (in ticks) in various power states
system.cpu.thread_0.numInsts                        0                       # Number of Instructions committed
system.cpu.thread_0.numOps                          0                       # Number of Ops committed
system.cpu.thread_0.numMemRefs                      0                       # Number of Memory References
system.cpu_clk_domain.clock                       500                       # Clock period in ticks
system.cpu_voltage_domain.voltage                   1                       # Voltage in Volts
system.l2.demand_hits::.switch_cpus.inst       204932                       # number of demand (read+write) hits
system.l2.demand_hits::.switch_cpus.data        37357                       # number of demand (read+write) hits
system.l2.demand_hits::total                   242289                       # number of demand (read+write) hits
system.l2.overall_hits::.switch_cpus.inst       204932                       # number of overall hits
system.l2.overall_hits::.switch_cpus.data        37357                       # number of overall hits
system.l2.overall_hits::total                  242289                       # number of overall hits
system.l2.demand_misses::.switch_cpus.inst         6926                       # number of demand (read+write) misses
system.l2.demand_misses::.switch_cpus.data        12529                       # number of demand (read+write) misses
system.l2.demand_misses::total                  19455                       # number of demand (read+write) misses
system.l2.overall_misses::.switch_cpus.inst         6926                       # number of overall misses
system.l2.overall_misses::.switch_cpus.data        12529                       # number of overall misses
system.l2.overall_misses::total                 19455                       # number of overall misses
system.l2.demand_miss_latency::.switch_cpus.inst    576407500                       # number of demand (read+write) miss cycles
system.l2.demand_miss_latency::.switch_cpus.data   1002710500                       # number of demand (read+write) miss cycles
system.l2.demand_miss_latency::total       1579118000                       # number of demand (read+write) miss cycles
system.l2.overall_miss_latency::.switch_cpus.inst    576407500                       # number of overall miss cycles
system.l2.overall_miss_latency::.switch_cpus.data   1002710500                       # number of overall miss cycles
system.l2.overall_miss_latency::total      1579118000                       # number of overall miss cycles
system.l2.demand_accesses::.switch_cpus.inst       211858                       # number of demand (read+write) accesses
system.l2.demand_accesses::.switch_cpus.data        49886                       # number of demand (read+write) accesses
system.l2.demand_accesses::total               261744                       # number of demand (read+write) accesses
system.l2.overall_accesses::.switch_cpus.inst       211858                       # number of overall (read+write) accesses
system.l2.overall_accesses::.switch_cpus.data        49886                       # number of overall (read+write) accesses
system.l2.overall_accesses::total              261744                       # number of overall (read+write) accesses
system.l2.demand_miss_rate::.switch_cpus.inst     0.032692                       # miss rate for demand accesses
system.l2.demand_miss_rate::.switch_cpus.data     0.251153                       # miss rate for demand accesses
system.l2.demand_miss_rate::total            0.074328                       # miss rate for demand accesses
system.l2.overall_miss_rate::.switch_cpus.inst     0.032692                       # miss rate for overall accesses
system.l2.overall_miss_rate::.switch_cpus.data     0.251153                       # miss rate for overall accesses
system.l2.overall_miss_rate::total           0.074328                       # miss rate for overall accesses
system.l2.demand_avg_miss_latency::.switch_cpus.inst 83223.722206                       # average overall miss latency
system.l2.demand_avg_miss_latency::.switch_cpus.data 80031.167691                       # average overall miss latency
system.l2.demand_avg_miss_latency::total 81167.720380                       # average overall miss latency
system.l2.overall_avg_miss_latency::.switch_cpus.inst 83223.722206                       # average overall miss latency
system.l2.overall_avg_miss_latency::.switch_cpus.data 80031.167691                       # average overall miss latency
system.l2.overall_avg_miss_latency::total 81167.720380                       # average overall miss latency
system.l2.blocked_cycles::no_mshrs                  0                       # number of cycles access was blocked
system.l2.blocked_cycles::no_targets                0                       # number of cycles access was blocked
system.l2.blocked::no_mshrs                         0                       # number of cycles access was blocked
system.l2.blocked::no_targets                       0                       # number of cycles access was blocked
system.l2.avg_blocked_cycles::no_mshrs            nan                       # average number of cycles each access was blocked
system.l2.avg_blocked_cycles::no_targets          nan                       # average number of cycles each access was blocked
system.l2.writebacks::.writebacks               10038                       # number of writebacks
system.l2.writebacks::total                     10038                       # number of writebacks
system.l2.demand_mshr_hits::.switch_cpus.inst            1                       # number of demand (read+write) MSHR hits
system.l2.demand_mshr_hits::total                   1                       # number of demand (read+write) MSHR hits
system.l2.overall_mshr_hits::.switch_cpus.inst            1                       # number of overall MSHR hits
system.l2.overall_mshr_hits::total                  1                       # number of overall MSHR hits
system.l2.demand_mshr_misses::.switch_cpus.inst         6925                       # number of demand (read+write) MSHR misses
system.l2.demand_mshr_misses::.switch_cpus.data        12529                       # number of demand (read+write) MSHR misses
system.l2.demand_mshr_misses::total             19454                       # number of demand (read+write) MSHR misses
system.l2.overall_mshr_misses::.switch_cpus.inst         6925                       # number of overall MSHR misses
system.l2.overall_mshr_misses::.switch_cpus.data        12529                       # number of overall MSHR misses
system.l2.overall_mshr_misses::total            19454                       # number of overall MSHR misses
system.l2.demand_mshr_miss_latency::.switch_cpus.inst    507079500                       # number of demand (read+write) MSHR miss cycles
system.l2.demand_mshr_miss_latency::.switch_cpus.data    877420500                       # number of demand (read+write) MSHR miss cycles
system.l2.demand_mshr_miss_latency::total   1384500000                       # number of demand (read+write) MSHR miss cycles
system.l2.overall_mshr_miss_latency::.switch_cpus.inst    507079500                       # number of overall MSHR miss cycles
system.l2.overall_mshr_miss_latency::.switch_cpus.data    877420500                       # number of overall MSHR miss cycles
system.l2.overall_mshr_miss_latency::total   1384500000                       # number of overall MSHR miss cycles
system.l2.demand_mshr_miss_rate::.switch_cpus.inst     0.032687                       # mshr miss rate for demand accesses
system.l2.demand_mshr_miss_rate::.switch_cpus.data     0.251153                       # mshr miss rate for demand accesses
system.l2.demand_mshr_miss_rate::total       0.074325                       # mshr miss rate for demand accesses
system.l2.overall_mshr_miss_rate::.switch_cpus.inst     0.032687                       # mshr miss rate for overall accesses
system.l2.overall_mshr_miss_rate::.switch_cpus.data     0.251153                       # mshr miss rate for overall accesses
system.l2.overall_mshr_miss_rate::total      0.074325                       # mshr miss rate for overall accesses
system.l2.demand_avg_mshr_miss_latency::.switch_cpus.inst 73224.476534                       # average overall mshr miss latency
system.l2.demand_avg_mshr_miss_latency::.switch_cpus.data 70031.167691                       # average overall mshr miss latency
system.l2.demand_avg_mshr_miss_latency::total 71167.883212                       # average overall mshr miss latency
system.l2.overall_avg_mshr_miss_latency::.switch_cpus.inst 73224.476534                       # average overall mshr miss latency
system.l2.overall_avg_mshr_miss_latency::.switch_cpus.data 70031.167691                       # average overall mshr miss latency
system.l2.overall_avg_mshr_miss_latency::total 71167.883212                       # average overall mshr miss latency
system.l2.replacements                          20068                       # number of replacements
system.l2.WritebackDirty_hits::.writebacks        37777                       # number of WritebackDirty hits
system.l2.WritebackDirty_hits::total            37777                       # number of WritebackDirty hits
system.l2.WritebackDirty_accesses::.writebacks        37777                       # number of WritebackDirty accesses(hits+misses)
system.l2.WritebackDirty_accesses::total        37777                       # number of WritebackDirty accesses(hits+misses)
system.l2.WritebackClean_hits::.writebacks       211797                       # number of WritebackClean hits
system.l2.WritebackClean_hits::total           211797                       # number of WritebackClean hits
system.l2.WritebackClean_accesses::.writebacks       211797                       # number of WritebackClean accesses(hits+misses)
system.l2.WritebackClean_accesses::total       211797                       # number of WritebackClean accesses(hits+misses)
system.l2.CleanEvict_mshr_misses::.writebacks          206                       # number of CleanEvict MSHR misses
system.l2.CleanEvict_mshr_misses::total           206                       # number of CleanEvict MSHR misses
system.l2.CleanEvict_mshr_miss_rate::.writebacks          inf                       # mshr miss rate for CleanEvict accesses
system.l2.CleanEvict_mshr_miss_rate::total          inf                       # mshr miss rate for CleanEvict accesses
system.l2.UpgradeReq_hits::.switch_cpus.data          332                       # number of UpgradeReq hits
[...]
system.switch_cpus.commit.committedInstType_0::SimdAlu        12526      0.07%     79.85% # Class of committed instruction
system.switch_cpus.commit.committedInstType_0::SimdCmp           14      0.00%     79.85% # Class of committed instruction
system.switch_cpus.commit.committedInstType_0::SimdCvt         6358      0.03%     79.88% # Class of committed instruction
system.switch_cpus.commit.committedInstType_0::SimdMisc        30171      0.16%     80.04% # Class of committed instruction
system.switch_cpus.commit.committedInstType_0::SimdMult            0      0.00%     80.04% # Class of committed instruction
system.switch_cpus.commit.committedInstType_0::SimdMultAcc            0      0.00%     80.04% # Class of committed instruction
system.switch_cpus.commit.committedInstType_0::SimdShift           30      0.00%     80.04% # Class of committed instruction
system.switch_cpus.commit.committedInstType_0::SimdShiftAcc            0      0.00%     80.04% # Class of committed instruction
system.switch_cpus.commit.committedInstType_0::SimdDiv            0      0.00%     80.04% # Class of committed instruction
system.switch_cpus.commit.committedInstType_0::SimdSqrt            0      0.00%     80.04% # Class of committed instruction
system.switch_cpus.commit.committedInstType_0::SimdFloatAdd            3      0.00%     80.04% # Class of committed instruction
system.switch_cpus.commit.committedInstType_0::SimdFloatAlu            0      0.00%     80.04% # Class of committed instruction
system.switch_cpus.commit.committedInstType_0::SimdFloatCmp            0      0.00%     80.04% # Class of committed instruction
system.switch_cpus.commit.committedInstType_0::SimdFloatCvt            4      0.00%     80.04% # Class of committed instruction
system.switch_cpus.commit.committedInstType_0::SimdFloatDiv            1      0.00%     80.04% # Class of committed instruction
system.switch_cpus.commit.committedInstType_0::SimdFloatMisc            0      0.00%     80.04% # Class of committed instruction
system.switch_cpus.commit.committedInstType_0::SimdFloatMult            1      0.00%     80.04% # Class of committed instruction
system.switch_cpus.commit.committedInstType_0::SimdFloatMultAcc            0      0.00%     80.04% # Class of committed instruction
system.switch_cpus.commit.committedInstType_0::SimdFloatSqrt            0      0.00%     80.04% # Class of committed instruction
system.switch_cpus.commit.committedInstType_0::SimdReduceAdd            0      0.00%     80.04% # Class of committed instruction
system.switch_cpus.commit.committedInstType_0::SimdReduceAlu            0      0.00%     80.04% # Class of committed instruction
system.switch_cpus.commit.committedInstType_0::SimdReduceCmp            0      0.00%     80.04% # Class of committed instruction
system.switch_cpus.commit.committedInstType_0::SimdFloatReduceAdd            0      0.00%     80.04% # Class of committed instruction
system.switch_cpus.commit.committedInstType_0::SimdFloatReduceCmp            0      0.00%     80.04% # Class of committed instruction
system.switch_cpus.commit.committedInstType_0::SimdAes            0      0.00%     80.04% # Class of committed instruction
system.switch_cpus.commit.committedInstType_0::SimdAesMix            0      0.00%     80.04% # Class of committed instruction
system.switch_cpus.commit.committedInstType_0::SimdSha1Hash            0      0.00%     80.04% # Class of committed instruction
system.switch_cpus.commit.committedInstType_0::SimdSha1Hash2            0      0.00%     80.04% # Class of committed instruction
system.switch_cpus.commit.committedInstType_0::SimdSha256Hash            0      0.00%     80.04% # Class of committed instruction
system.switch_cpus.commit.committedInstType_0::SimdSha256Hash2            0      0.00%     80.04% # Class of committed instruction
system.switch_cpus.commit.committedInstType_0::SimdShaSigma2            0      0.00%     80.04% # Class of committed instruction
system.switch_cpus.commit.committedInstType_0::SimdShaSigma3            0      0.00%     80.04% # Class of committed instruction
system.switch_cpus.commit.committedInstType_0::SimdPredAlu            0      0.00%     80.04% # Class of committed instruction
system.switch_cpus.commit.committedInstType_0::MemRead      2358859     12.50%     92.54% # Class of committed instruction
system.switch_cpus.commit.committedInstType_0::MemWrite      1283780      6.80%     99.35% # Class of committed instruction
system.switch_cpus.commit.committedInstType_0::FloatMemRead        28534      0.15%     99.50% # Class of committed instruction
system.switch_cpus.commit.committedInstType_0::FloatMemWrite        94674      0.50%    100.00% # Class of committed instruction
system.switch_cpus.commit.committedInstType_0::IprAccess            0      0.00%    100.00% # Class of committed instruction
system.switch_cpus.commit.committedInstType_0::InstPrefetch            0      0.00%    100.00% # Class of committed instruction
system.switch_cpus.commit.committedInstType_0::total     18867927                       # Class of committed instruction
system.switch_cpus.commit.commitEligibleSamples       743033                       # number cycles where commit BW limit reached
system.switch_cpus.decode.idleCycles          6644633                       # Number of cycles decode is idle
system.switch_cpus.decode.blockedCycles       3838865                       # Number of cycles decode is blocked
system.switch_cpus.decode.runCycles           6320581                       # Number of cycles decode is running
system.switch_cpus.decode.unblockCycles        489637                       # Number of cycles decode is unblocking
system.switch_cpus.decode.squashCycles         608978                       # Number of cycles decode is squashing
system.switch_cpus.decode.branchResolved      1888424                       # Number of times decode resolved a  branch
system.switch_cpus.decode.branchMispred         64367                       # Number of times decode detected a branch misprediction
system.switch_cpus.decode.decodedInsts       45347721                       # Number of instructions handled by decode
system.switch_cpus.decode.squashedInsts        257827                       # Number of squashed instructions handled by decode
system.switch_cpus.dtb.rdAccesses             4143767                       # TLB accesses on read requests
system.switch_cpus.dtb.wrAccesses             2265333                       # TLB accesses on write requests
system.switch_cpus.dtb.rdMisses                 23567                       # TLB misses on read requests
system.switch_cpus.dtb.wrMisses                  2753                       # TLB misses on write requests
system.switch_cpus.dtb.walker.power_state.pwrStateResidencyTicks::UNDEFINED  10489175500                       # Cumulative time (in ticks) in various power states
system.switch_cpus.fetch.icacheStallCycles      7638781                       # Number of cycles fetch is stalled on an Icache miss
system.switch_cpus.fetch.insts               25741076                       # Number of instructions fetch has processed
system.switch_cpus.fetch.branches             5545181                       # Number of branches that fetch encountered
system.switch_cpus.fetch.predictedBranches      2306483                       # Number of branches that fetch has predicted taken
system.switch_cpus.fetch.cycles               9552469                       # Number of cycles fetch has run and was not squashing or blocked
system.switch_cpus.fetch.squashCycles         1341358                       # Number of cycles fetch has spent squashing
system.switch_cpus.fetch.tlbCycles                 24                       # Number of cycles fetch has spent waiting for tlb
system.switch_cpus.fetch.miscStallCycles         3977                       # Number of cycles fetch has spent waiting on interrupts,or bad addresses, or out of MSHRs
system.switch_cpus.fetch.pendingTrapStallCycles        36027                       # Number of stall cycles due to pending traps
system.switch_cpus.fetch.icacheWaitRetryStallCycles          742                       # Number of stall cycles due to full MSHR
system.switch_cpus.fetch.cacheLines           4056169                       # Number of cache lines fetched
system.switch_cpus.fetch.icacheSquashes        264724                       # Number of outstanding Icache misses that were squashed
system.switch_cpus.fetch.nisnDist::samples     17902699                       # Number of instructions fetched each cycle (Total)
system.switch_cpus.fetch.nisnDist::mean      2.724916                       # Number of instructions fetched each cycle (Total)
system.switch_cpus.fetch.nisnDist::stdev     3.471452                       # Number of instructions fetched each cycle (Total)
system.switch_cpus.fetch.nisnDist::underflows            0      0.00%      0.00% # Number of instructions fetched each cycle (Total)
system.switch_cpus.fetch.nisnDist::0         10199236     56.97%     56.97% # Number of instructions fetched each cycle (Total)
system.switch_cpus.fetch.nisnDist::1           387047      2.16%     59.13% # Number of instructions fetched each cycle (Total)
system.switch_cpus.fetch.nisnDist::2           390094      2.18%     61.31% # Number of instructions fetched each cycle (Total)
system.switch_cpus.fetch.nisnDist::3           423018      2.36%     63.67% # Number of instructions fetched each cycle (Total)
system.switch_cpus.fetch.nisnDist::4           590706      3.30%     66.97% # Number of instructions fetched each cycle (Total)
system.switch_cpus.fetch.nisnDist::5           621395      3.47%     70.44% # Number of instructions fetched each cycle (Total)
system.switch_cpus.fetch.nisnDist::6           541576      3.03%     73.47% # Number of instructions fetched each cycle (Total)
system.switch_cpus.fetch.nisnDist::7           369205      2.06%     75.53% # Number of instructions fetched each cycle (Total)
system.switch_cpus.fetch.nisnDist::8          4380422     24.47%    100.00% # Number of instructions fetched each cycle (Total)
system.switch_cpus.fetch.nisnDist::overflows            0      0.00%    100.00% # Number of instructions fetched each cycle (Total)
system.switch_cpus.fetch.nisnDist::min_value            0                       # Number of instructions fetched each cycle (Total)
system.switch_cpus.fetch.nisnDist::max_value            8                       # Number of instructions fetched each cycle (Total)
system.switch_cpus.fetch.nisnDist::total     17902699                       # Number of instructions fetched each cycle (Total)
system.switch_cpus.fetch.branchRate          0.294361                       # Number of branch fetches per cycle
system.switch_cpus.fetch.rate                1.366443                       # Number of inst fetches per cycle
system.switch_cpus.itb.rdAccesses                   0                       # TLB accesses on read requests
system.switch_cpus.itb.wrAccesses             4062992                       # TLB accesses on write requests
system.switch_cpus.itb.rdMisses                     0                       # TLB misses on read requests
system.switch_cpus.itb.wrMisses                 42945                       # TLB misses on write requests
system.switch_cpus.itb.walker.power_state.pwrStateResidencyTicks::UNDEFINED  10489175500                       # Cumulative time (in ticks) in various power states
system.switch_cpus.lsq0.forwLoads              231313                       # Number of loads that had data forwarded from stores
system.switch_cpus.lsq0.squashedLoads         2796198                       # Number of loads squashed
system.switch_cpus.lsq0.ignoredResponses         5249                       # Number of memory responses ignored because the instruction is squashed
system.switch_cpus.lsq0.memOrderViolation         4618                       # Number of memory ordering violations
system.switch_cpus.lsq0.squashedStores        1536921                       # Number of stores squashed
system.switch_cpus.lsq0.rescheduledLoads         7806                       # Number of loads that were rescheduled
system.switch_cpus.lsq0.blockedByCache            114                       # Number of times an access to memory failed due to the cache being blocked
system.switch_cpus.power_state.pwrStateResidencyTicks::OFF  10489175500                       # Cumulative time (in ticks) in various power states
system.switch_cpus.rename.squashCycles         608978                       # Number of cycles rename is squashing
system.switch_cpus.rename.idleCycles          7047405                       # Number of cycles rename is idle
system.switch_cpus.rename.blockCycles         2966770                       # Number of cycles rename is blocking
system.switch_cpus.rename.serializeStallCycles            8                       # count of cycles rename stalledfor serializing inst
system.switch_cpus.rename.runCycles           6369294                       # Number of cycles rename is running
system.switch_cpus.rename.unblockCycles        910239                       # Number of cycles rename is unblocking
system.switch_cpus.rename.renamedInsts       43041274                       # Number of instructions processed by rename
system.switch_cpus.rename.ROBFullEvents          7267                       # Number of times rename has blocked due to ROB full
system.switch_cpus.rename.IQFullEvents          47261                       # Number of times rename has blocked due to IQ full
system.switch_cpus.rename.LQFullEvents          10068                       # Number of times rename has blocked due to LQ full
system.switch_cpus.rename.SQFullEvents         822048                       # Number of times rename has blocked due to SQ full
system.switch_cpus.rename.renamedOperands     46571699                       # Number of destination operands rename has renamed
system.switch_cpus.rename.lookups           104589593                       # Number of register rename lookups that rename has made
system.switch_cpus.rename.intLookups         62393110                       # Number of integer rename lookups
system.switch_cpus.rename.fpLookups            468995                       # Number of floating rename lookups
system.switch_cpus.rename.committedMaps      21340992                       # Number of HB maps that are committed
system.switch_cpus.rename.undoneMaps         25230706                       # Number of HB maps that are undone due to squashing
system.switch_cpus.rename.serializing               2                       # count of serializing insts renamed
system.switch_cpus.rename.tempSerializing            2                       # count of temporary serializing insts renamed
system.switch_cpus.rename.skidInsts            503449                       # count of insts added to the skid buffer
system.switch_cpus.rob.reads                 52719096                       # The number of ROB reads
system.switch_cpus.rob.writes                79813207                       # The number of ROB writes
system.switch_cpus.thread_0.numInsts         10000000                       # Number of Instructions committed
system.switch_cpus.thread_0.numOps           18867927                       # Number of Ops committed
system.switch_cpus.thread_0.numMemRefs              0                       # Number of Memory References
system.tol2bus.trans_dist::ReadResp            247245                       # Transaction distribution
system.tol2bus.trans_dist::WritebackDirty        47815                       # Transaction distribution
system.tol2bus.trans_dist::WritebackClean       211978                       # Transaction distribution
system.tol2bus.trans_dist::CleanEvict           22139                       # Transaction distribution
system.tol2bus.trans_dist::UpgradeReq             340                       # Transaction distribution
system.tol2bus.trans_dist::UpgradeResp            340                       # Transaction distribution
system.tol2bus.trans_dist::ReadExReq            14876                       # Transaction distribution
system.tol2bus.trans_dist::ReadExResp           14876                       # Transaction distribution
system.tol2bus.trans_dist::ReadCleanReq        212236                       # Transaction distribution
system.tol2bus.trans_dist::ReadSharedReq        35010                       # Transaction distribution
system.tol2bus.pkt_count_system.cpu.icache.mem_side_port::system.l2.cpu_side_port       636071                       # Packet count per connected requestor and responder (bytes)
system.tol2bus.pkt_count_system.cpu.dcache.mem_side_port::system.l2.cpu_side_port       150338                       # Packet count per connected requestor and responder (bytes)
system.tol2bus.pkt_count::total                786409                       # Packet count per connected requestor and responder (bytes)
system.tol2bus.pkt_size_system.cpu.icache.mem_side_port::system.l2.cpu_side_port     27125440                       # Cumulative packet size per connected requestor and responder (bytes)
system.tol2bus.pkt_size_system.cpu.dcache.mem_side_port::system.l2.cpu_side_port      5610432                       # Cumulative packet size per connected requestor and responder (bytes)
system.tol2bus.pkt_size::total               32735872                       # Cumulative packet size per connected requestor and responder (bytes)
system.tol2bus.snoops                           20446                       # Total snoops (count)
system.tol2bus.snoopTraffic                    666624                       # Total snoop traffic (bytes)
system.tol2bus.snoop_fanout::samples           282530                       # Request fanout histogram
system.tol2bus.snoop_fanout::mean            0.007327                       # Request fanout histogram
system.tol2bus.snoop_fanout::stdev           0.085655                       # Request fanout histogram
system.tol2bus.snoop_fanout::underflows             0      0.00%      0.00% # Request fanout histogram
system.tol2bus.snoop_fanout::0                 280469     99.27%     99.27% # Request fanout histogram
system.tol2bus.snoop_fanout::1                   2052      0.73%    100.00% # Request fanout histogram
system.tol2bus.snoop_fanout::2                      9      0.00%    100.00% # Request fanout histogram
system.tol2bus.snoop_fanout::3                      0      0.00%    100.00% # Request fanout histogram
system.tol2bus.snoop_fanout::4                      0      0.00%    100.00% # Request fanout histogram
system.tol2bus.snoop_fanout::overflows              0      0.00%    100.00% # Request fanout histogram
system.tol2bus.snoop_fanout::min_value              0                       # Request fanout histogram
system.tol2bus.snoop_fanout::max_value              2                       # Request fanout histogram
system.tol2bus.snoop_fanout::total             282530                       # Request fanout histogram
system.tol2bus.power_state.pwrStateResidencyTicks::UNDEFINED  10489175500                       # Cumulative time (in ticks) in various power states
system.tol2bus.reqLayer0.occupancy          511918499                       # Layer occupancy (ticks)
system.tol2bus.reqLayer0.utilization              5.4                       # Layer utilization (%)
system.tol2bus.respLayer0.occupancy         318370464                       # Layer occupancy (ticks)
system.tol2bus.respLayer0.utilization             3.4                       # Layer utilization (%)
system.tol2bus.respLayer1.occupancy          75015467                       # Layer occupancy (ticks)
system.tol2bus.respLayer1.utilization             0.8                       # Layer utilization (%)
system.voltage_domain.voltage                       1                       # Voltage in Volts

---------- End Simulation Statistics   ----------
