
---------- Begin Simulation Statistics ----------
final_tick                                10350158500                       # Number of ticks from beginning of simulation (restored from checkpoints and never reset)
host_inst_rate                                  93911                       # Simulator instruction rate (inst/s)
host_mem_usage                                8690936                       # Number of bytes of host memory used
host_op_rate                                   176671                       # Simulator op (including micro ops) rate (op/s)
host_seconds                                   117.13                       # Real time elapsed on the host
host_tick_rate                               79226437                       # Simulator tick rate (ticks/s)
sim_freq                                 1000000000000                       # Frequency of simulated ticks
sim_insts                                    11000001                       # Number of instructions simulated
sim_ops                                      20693944                       # Number of ops (including micro ops) simulated
sim_seconds                                  0.009280                       # Number of seconds simulated
sim_ticks                                  9279988500                       # Number of ticks simulated
system.cpu.committedInsts                           0                       # Number of instructions committed
system.cpu.committedOps                             0                       # Number of ops (including micro ops) committed
system.cpu.idle_fraction                            0                       # Percentage of idle cycles
system.cpu.not_idle_fraction                        1                       # Percentage of non-idle cycles
system.cpu.numCycles                                0                       # number of cpu cycles simulated
system.cpu.numWorkItemsCompleted                    0                       # number of work items this cpu completed
system.cpu.numWorkItemsStarted                      0                       # number of work items this cpu started
system.cpu.num_busy_cycles                          0                       # Number of busy cycles
system.cpu.num_conditional_control_insts            0                       # number of instructions that are conditional controls
system.cpu.num_fp_alu_accesses                      0                       # Number of float alu accesses
system.cpu.num_fp_insts                             0                       # number of float instructions
system.cpu.num_fp_register_reads                    0                       # number of times the floating registers were read
system.cpu.num_fp_register_writes                   0                       # number of times the floating registers were written
system.cpu.num_func_calls                           0                       # number of times a function call or return occured
system.cpu.num_idle_cycles                          0                       # Number of idle cycles
system.cpu.num_int_alu_accesses                     0                       # Number of integer alu accesses
system.cpu.num_int_insts                            0                       # number of integer instructions
system.cpu.num_int_register_reads                   0                       # number of times the integer registers were read
system.cpu.num_int_register_writes                  0                       # number of times the integer registers were written
system.cpu.num_load_insts                           0                       # Number of load instructions
system.cpu.num_mem_refs                             0                       # number of memory refs
system.cpu.num_store_insts                          0                       # Number of store instructions
system.cpu.num_vec_alu_accesses                     0                       # Number of vector alu accesses
system.cpu.num_vec_insts                            0                       # number of vector instructions
system.cpu.num_vec_register_reads                   0                       # number of times the vector registers were read
system.cpu.num_vec_register_writes                  0                       # number of times the vector registers were written
system.cpu.op_class::No_OpClass                     0                       # Class of executed instruction
system.cpu.op_class::IntAlu                         0                       # Class of executed instruction
system.cpu.op_class::IntMult                        0                       # Class of executed instruction
system.cpu.op_class::IntDiv                         0                       # Class of executed instruction
system.cpu.op_class::FloatAdd                       0                       # Class of executed instruction
system.cpu.op_class::FloatCmp                       0                       # Class of executed instruction
system.cpu.op_class::FloatCvt                       0                       # Class of executed instruction
system.cpu.op_class::FloatMult                      0                       # Class of executed instruction
system.cpu.op_class::FloatMultAcc                   0                       # Class of executed instruction
system.cpu.op_class::FloatDiv                       0                       # Class of executed instruction
system.cpu.op_class::FloatMisc                      0                       # Class of executed instruction
system.cpu.op_class::FloatSqrt                      0                       # Class of executed instruction
system.cpu.op_class::SimdAdd                        0                       # Class of executed instruction
system.cpu.op_class::SimdAddAcc                     0                       # Class of executed instruction
system.cpu.op_class::SimdAlu                        0                       # Class of executed instruction
system.cpu.op_class::SimdCmp                        0                       # Class of executed instruction
system.cpu.op_class::SimdCvt                        0                       # Class of executed instruction
system.cpu.op_class::SimdMisc                       0                       # Class of executed instruction
system.cpu.op_class::SimdMult                       0                       # Class of executed instruction
system.cpu.op_class::SimdMultAcc                    0                       # Class of executed instruction
system.cpu.op_class::SimdShift                      0                       # Class of executed instruction
system.cpu.op_class::SimdShiftAcc                   0                       # Class of executed instruction
system.cpu.op_class::SimdDiv                        0                       # Class of executed instruction
system.cpu.op_class::SimdSqrt                       0                       # Class of executed instruction
system.cpu.op_class::SimdFloatAdd                   0                       # Class of executed instruction
system.cpu.op_class::SimdFloatAlu                   0                       # Class of executed instruction
system.cpu.op_class::SimdFloatCmp                   0                       # Class of executed instruction
system.cpu.op_class::SimdFloatCvt                   0                       # Class of executed instruction
system.cpu.op_class::SimdFloatDiv                   0                       # Class of executed instruction
system.cpu.op_class::SimdFloatMisc                  0                       # Class of executed instruction
system.cpu.op_class::SimdFloatMult                  0                       # Class of executed instruction
system.cpu.op_class::SimdFloatMultAcc               0                       # Class of executed instruction
system.cpu.op_class::SimdFloatSqrt                  0                       # Class of executed instruction
system.cpu.op_class::SimdReduceAdd                  0                       # Class of executed instruction
system.cpu.op_class::SimdReduceAlu                  0                       # Class of executed instruction
system.cpu.op_class::SimdReduceCmp                  0                       # Class of executed instruction
system.cpu.op_class::SimdFloatReduceAdd             0                       # Class of executed instruction
system.cpu.op_class::SimdFloatReduceCmp             0                       # Class of executed instruction
system.cpu.op_class::SimdAes                        0                       # Class of executed instruction
system.cpu.op_class::SimdAesMix                     0                       # Class of executed instruction
system.cpu.op_class::SimdSha1Hash                   0                       # Class of executed instruction
system.cpu.op_class::SimdSha1Hash2                  0                       # Class of executed instruction
system.cpu.op_class::SimdSha256Hash                 0                       # Class of executed instruction
system.cpu.op_class::SimdSha256Hash2                0                       # Class of executed instruction
system.cpu.op_class::SimdShaSigma2                  0                       # Class of executed instruction
system.cpu.op_class::SimdShaSigma3                  0                       # Class of executed instruction
system.cpu.op_class::SimdPredAlu                    0                       # Class of executed instruction
system.cpu.op_class::MemRead                        0                       # Class of executed instruction
system.cpu.op_class::MemWrite                       0                       # Class of executed instruction
system.cpu.op_class::FloatMemRead                   0                       # Class of executed instruction
system.cpu.op_class::FloatMemWrite                  0                       # Class of executed instruction
system.cpu.op_class::IprAccess                      0                       # Class of executed instruction
system.cpu.op_class::InstPrefetch                   0                       # Class of executed instruction
system.cpu.op_class::total                          0                       # Class of executed instruction
system.cpu.workload.numSyscalls                     8                       # Number of system calls
system.membus.snoop_filter.hit_multi_requests            0                       # Number of requests hitting in the snoop filter with multiple (>1) holders of the requested data.
system.membus.snoop_filter.hit_multi_snoops            0                       # Number of snoops hitting in the snoop filter with multiple (>1) holders of the requested data.
system.membus.snoop_filter.hit_single_requests        19255                       # Number of requests hitting in the snoop filter with a single holder of the requested data.
system.membus.snoop_filter.hit_single_snoops            0                       # Number of snoops hitting in the snoop filter with a single holder of the requested data.
system.membus.snoop_filter.tot_requests         38700                       # Total number of requests made to the snoop filter.
system.membus.snoop_filter.tot_snoops               0                       # Total number of snoops made to the snoop filter.
system.switch_cpus.cc_regfile_reads          13608616                       # number of cc regfile reads
system.switch_cpus.cc_regfile_writes          8500472                       # number of cc regfile writes
system.switch_cpus.committedInsts            10000000                       # Number of Instructions Simulated
system.switch_cpus.committedOps              18867927                       # Number of Ops (including micro ops) Simulated
system.switch_cpus.cpi                       1.855998                       # CPI: Cycles Per Instruction
system.switch_cpus.cpi_total                 1.855998                       # CPI: Total CPI of All Threads
system.switch_cpus.fp_regfile_reads            368265                       # number of floating regfile reads
system.switch_cpus.fp_regfile_writes           225591                       # number of floating regfile writes
system.switch_cpus.idleCycles                  924067                       # Total number of cycles that the CPU has spent unscheduled due to idling
system.switch_cpus.iew.branchMispredicts       708422                       # Number of branch mispredicts detected at execute
system.switch_cpus.iew.exec_branches          3000471                       # Number of branches executed
system.switch_cpus.iew.exec_nop                     0                       # number of nop insts executed
system.switch_cpus.iew.exec_rate             1.679590                       # Inst execution rate
system.switch_cpus.iew.exec_refs              6330273                       # number of memory reference insts executed
system.switch_cpus.iew.exec_stores            2229880                       # Number of stores executed
system.switch_cpus.iew.exec_swp                     0                       # number of swp insts executed
system.switch_cpus.iew.iewBlockCycles         2209172                       # Number of cycles IEW is blocking
system.switch_cpus.iew.iewDispLoadInsts       5096943                       # Number of dispatched load instructions
system.switch_cpus.iew.iewDispNonSpecInsts         1899                       # Number of dispatched non-speculative instructions
system.switch_cpus.iew.iewDispSquashedInsts        72482                       # Number of squashed instructions skipped by dispatch
system.switch_cpus.iew.iewDispStoreInsts      2847658                       # Number of dispatched store instructions
system.switch_cpus.iew.iewDispatchedInsts     37963634                       # Number of instructions dispatched to IQ
system.switch_cpus.iew.iewExecLoadInsts       4100393                       # Number of load instructions executed
system.switch_cpus.iew.iewExecSquashedInsts      1331778                       # Number of squashed instructions skipped in execute
system.switch_cpus.iew.iewExecutedInsts      31173158                       # Number of executed instructions
system.switch_cpus.iew.iewIQFullEvents           1729                       # Number of times the IQ has become full, causing a stall
system.switch_cpus.iew.iewIdleCycles                0                       # Number of cycles IEW is idle
system.switch_cpus.iew.iewLSQFullEvents        536403                       # Number of times the LSQ has become full, causing a stall
system.switch_cpus.iew.iewSquashCycles         589792                       # Number of cycles IEW is squashing
system.switch_cpus.iew.iewUnblockCycles        538239                       # Number of cycles IEW is unblocking
system.switch_cpus.iew.memOrderViolationEvents         4739                       # Number of memory order violations
system.switch_cpus.iew.predictedNotTakenIncorrect       453397                       # Number of branches that were predicted not taken incorrectly
system.switch_cpus.iew.predictedTakenIncorrect       255025                       # Number of branches that were predicted taken incorrectly
system.switch_cpus.iew.wb_consumers          33386831                       # num instructions consuming a value
system.switch_cpus.iew.wb_count              30477756                       # cumulative count of insts written-back
system.switch_cpus.iew.wb_fanout             0.649843                       # average fanout of values written-back
system.switch_cpus.iew.wb_producers          21696188                       # num instructions producing a value
system.switch_cpus.iew.wb_rate               1.642123                       # insts written-back per cycle
system.switch_cpus.iew.wb_sent               30843189                       # cumulative count of insts sent to commit
system.switch_cpus.int_regfile_reads         42441121                       # number of integer regfile reads
system.switch_cpus.int_regfile_writes        24707741                       # number of integer regfile writes
system.switch_cpus.ipc                       0.538794                       # IPC: Instructions Per Cycle
system.switch_cpus.ipc_total                 0.538794                       # IPC: Total IPC of All Threads
system.switch_cpus.iq.FU_type_0::No_OpClass       796481      2.45%      2.45% # Type of FU issued
system.switch_cpus.iq.FU_type_0::IntAlu      24867282     76.50%     78.95% # Type of FU issued
system.switch_cpus.iq.FU_type_0::IntMult        18290      0.06%     79.01% # Type of FU issued
system.switch_cpus.iq.FU_type_0::IntDiv          2207      0.01%     79.02% # Type of FU issued
system.switch_cpus.iq.FU_type_0::FloatAdd        13613      0.04%     79.06% # Type of FU issued
system.switch_cpus.iq.FU_type_0::FloatCmp            0      0.00%     79.06% # Type of FU issued
system.switch_cpus.iq.FU_type_0::FloatCvt            0      0.00%     79.06% # Type of FU issued
system.switch_cpus.iq.FU_type_0::FloatMult            0      0.00%     79.06% # Type of FU issued
system.switch_cpus.iq.FU_type_0::FloatMultAcc            0      0.00%     79.06% # Type of FU issued
system.switch_cpus.iq.FU_type_0::FloatDiv            0      0.00%     79.06% # Type of FU issued
system.switch_cpus.iq.FU_type_0::FloatMisc            0      0.00%     79.06% # Type of FU issued
system.switch_cpus.iq.FU_type_0::FloatSqrt            0      0.00%     79.06% # Type of FU issued
system.switch_cpus.iq.FU_type_0::SimdAdd          865      0.00%     79.06% # Type of FU issued
system.switch_cpus.iq.FU_type_0::SimdAddAcc            0      0.00%     79.06% # Type of FU issued
system.switch_cpus.iq.FU_type_0::SimdAlu        19553      0.06%     79.12% # Type of FU issued
system.switch_cpus.iq.FU_type_0::SimdCmp           14      0.00%     79.12% # Type of FU issued
system.switch_cpus.iq.FU_type_0::SimdCvt         8609      0.03%     79.15% # Type of FU issued
system.switch_cpus.iq.FU_type_0::SimdMisc        35303      0.11%     79.26% # Type of FU issued
system.switch_cpus.iq.FU_type_0::SimdMult            0      0.00%     79.26% # Type of FU issued
system.switch_cpus.iq.FU_type_0::SimdMultAcc            0      0.00%     79.26% # Type of FU issued
system.switch_cpus.iq.FU_type_0::SimdShift           60      0.00%     79.26% # Type of FU issued
system.switch_cpus.iq.FU_type_0::SimdShiftAcc            0      0.00%     79.26% # Type of FU issued
system.switch_cpus.iq.FU_type_0::SimdDiv            0      0.00%     79.26% # Type of FU issued
system.switch_cpus.iq.FU_type_0::SimdSqrt            0      0.00%     79.26% # Type of FU issued
system.switch_cpus.iq.FU_type_0::SimdFloatAdd            3      0.00%     79.26% # Type of FU issued
system.switch_cpus.iq.FU_type_0::SimdFloatAlu            0      0.00%     79.26% # Type of FU issued
system.switch_cpus.iq.FU_type_0::SimdFloatCmp            0      0.00%     79.26% # Type of FU issued
system.switch_cpus.iq.FU_type_0::SimdFloatCvt           16      0.00%     79.26% # Type of FU issued
system.switch_cpus.iq.FU_type_0::SimdFloatDiv            2      0.00%     79.26% # Type of FU issued
system.switch_cpus.iq.FU_type_0::SimdFloatMisc            0      0.00%     79.26% # Type of FU issued
system.switch_cpus.iq.FU_type_0::SimdFloatMult            2      0.00%     79.26% # Type of FU issued
system.switch_cpus.iq.FU_type_0::SimdFloatMultAcc            0      0.00%     79.26% # Type of FU issued
system.switch_cpus.iq.FU_type_0::SimdFloatSqrt            0      0.00%     79.26% # Type of FU issued
system.switch_cpus.iq.FU_type_0::SimdReduceAdd            0      0.00%     79.26% # Type of FU issued
system.switch_cpus.iq.FU_type_0::SimdReduceAlu            0      0.00%     79.26% # Type of FU issued
system.switch_cpus.iq.FU_type_0::SimdReduceCmp            0      0.00%     79.26% # Type of FU issued
system.switch_cpus.iq.FU_type_0::SimdFloatReduceAdd            0      0.00%     79.26% # Type of FU issued
system.switch_cpus.iq.FU_type_0::SimdFloatReduceCmp            0      0.00%     79.26% # Type of FU issued
system.switch_cpus.iq.FU_type_0::SimdAes            0      0.00%     79.26% # Type of FU issued
system.switch_cpus.iq.FU_type_0::SimdAesMix            0      0.00%     79.26% # Type of FU issued
system.switch_cpus.iq.FU_type_0::SimdSha1Hash            0      0.00%     79.26% # Type of FU issued
system.switch_cpus.iq.FU_type_0::SimdSha1Hash2            0      0.00%     79.26% # Type of FU issued
system.switch_cpus.iq.FU_type_0::SimdSha256Hash            0      0.00%     79.26% # Type of FU issued
system.switch_cpus.iq.FU_type_0::SimdSha256Hash2            0      0.00%     79.26% # Type of FU issued
system.switch_cpus.iq.FU_type_0::SimdShaSigma2            0      0.00%     79.26% # Type of FU issued
system.switch_cpus.iq.FU_type_0::SimdShaSigma3            0      0.00%     79.26% # Type of FU issued
system.switch_cpus.iq.FU_type_0::SimdPredAlu            0      0.00%     79.26% # Type of FU issued
system.switch_cpus.iq.FU_type_0::MemRead      4217922     12.98%     92.23% # Type of FU issued
system.switch_cpus.iq.FU_type_0::MemWrite      2131791      6.56%     98.79% # Type of FU issued
system.switch_cpus.iq.FU_type_0::FloatMemRead       156884      0.48%     99.27% # Type of FU issued
system.switch_cpus.iq.FU_type_0::FloatMemWrite       236039      0.73%    100.00% # Type of FU issued
system.switch_cpus.iq.FU_type_0::IprAccess            0      0.00%    100.00% # Type of FU issued
system.switch_cpus.iq.FU_type_0::InstPrefetch            0      0.00%    100.00% # Type of FU issued
system.switch_cpus.iq.FU_type_0::total       32504936                       # Type of FU issued
system.switch_cpus.iq.fp_alu_accesses          530067                       # Number of floating point alu accesses
system.switch_cpus.iq.fp_inst_queue_reads      1016979                       # Number of floating instruction queue reads
system.switch_cpus.iq.fp_inst_queue_wakeup_accesses       455685                       # Number of floating instruction queue wakeup accesses
system.switch_cpus.iq.fp_inst_queue_writes       868488                       # Number of floating instruction queue writes
system.switch_cpus.iq.fu_busy_cnt              603842                       # FU busy when requested
system.switch_cpus.iq.fu_busy_rate           0.018577                       # FU busy rate (busy events/executed inst)
system.switch_cpus.iq.fu_full::No_OpClass            0      0.00%      0.00% # attempts to use FU when none available
system.switch_cpus.iq.fu_full::IntAlu          496601     82.24%     82.24% # attempts to use FU when none available
system.switch_cpus.iq.fu_full::IntMult              0      0.00%     82.24% # attempts to use FU when none available
system.switch_cpus.iq.fu_full::IntDiv               0      0.00%     82.24% # attempts to use FU when none available
system.switch_cpus.iq.fu_full::FloatAdd             0      0.00%     82.24% # attempts to use FU when none available
system.switch_cpus.iq.fu_full::FloatCmp             0      0.00%     82.24% # attempts to use FU when none available
system.switch_cpus.iq.fu_full::FloatCvt             0      0.00%     82.24% # attempts to use FU when none available
system.switch_cpus.iq.fu_full::FloatMult            0      0.00%     82.24% # attempts to use FU when none available
system.switch_cpus.iq.fu_full::FloatMultAcc            0      0.00%     82.24% # attempts to use FU when none available
system.switch_cpus.iq.fu_full::FloatDiv             0      0.00%     82.24% # attempts to use FU when none available
system.switch_cpus.iq.fu_full::FloatMisc            0      0.00%     82.24% # attempts to use FU when none available
system.switch_cpus.iq.fu_full::FloatSqrt            0      0.00%     82.24% # attempts to use FU when none available
system.switch_cpus.iq.fu_full::SimdAdd              0      0.00%     82.24% # attempts to use FU when none available
system.switch_cpus.iq.fu_full::SimdAddAcc            0      0.00%     82.24% # attempts to use FU when none available
system.switch_cpus.iq.fu_full::SimdAlu            893      0.15%     82.39% # attempts to use FU when none available
system.switch_cpus.iq.fu_full::SimdCmp              0      0.00%     82.39% # attempts to use FU when none available
system.switch_cpus.iq.fu_full::SimdCvt            113      0.02%     82.41% # attempts to use FU when none available
system.switch_cpus.iq.fu_full::SimdMisc            14      0.00%     82.41% # attempts to use FU when none available
system.switch_cpus.iq.fu_full::SimdMult             0      0.00%     82.41% # attempts to use FU when none available
system.switch_cpus.iq.fu_full::SimdMultAcc            0      0.00%     82.41% # attempts to use FU when none available
system.switch_cpus.iq.fu_full::SimdShift           10      0.00%     82.41% # attempts to use FU when none available
system.switch_cpus.iq.fu_full::SimdShiftAcc            0      0.00%     82.41% # attempts to use FU when none available
system.switch_cpus.iq.fu_full::SimdDiv              0      0.00%     82.41% # attempts to use FU when none available
system.switch_cpus.iq.fu_full::SimdSqrt             0      0.00%     82.41% # attempts to use FU when none available
system.switch_cpus.iq.fu_full::SimdFloatAdd            0      0.00%     82.41% # attempts to use FU when none available
system.switch_cpus.iq.fu_full::SimdFloatAlu            0      0.00%     82.41% # attempts to use FU when none available
system.switch_cpus.iq.fu_full::SimdFloatCmp            0      0.00%     82.41% # attempts to use FU when none available
system.switch_cpus.iq.fu_full::SimdFloatCvt            0      0.00%     82.41% # attempts to use FU when none available
system.switch_cpus.iq.fu_full::SimdFloatDiv            0      0.00%     82.41% # attempts to use FU when none available
system.switch_cpus.iq.fu_full::SimdFloatMisc            0      0.00%     82.41% # attempts to use FU when none available
system.switch_cpus.iq.fu_full::SimdFloatMult            0      0.00%     82.41% # attempts to use FU when none available
system.switch_cpus.iq.fu_full::SimdFloatMultAcc            0      0.00%     82.41% # attempts to use FU when none available
system.switch_cpus.iq.fu_full::SimdFloatSqrt            0      0.00%     82.41% # attempts to use FU when none available
system.switch_cpus.iq.fu_full::SimdReduceAdd            0      0.00%     82.41% # attempts to use FU when none available
system.switch_cpus.iq.fu_full::SimdReduceAlu            0      0.00%     82.41% # attempts to use FU when none available
system.switch_cpus.iq.fu_full::SimdReduceCmp            0      0.00%     82.41% # attempts to use FU when none available
system.switch_cpus.iq.fu_full::SimdFloatReduceAdd            0      0.00%     82.41% # attempts to use FU when none available
system.switch_cpus.iq.fu_full::SimdFloatReduceCmp            0      0.00%     82.41% # attempts to use FU when none available
system.switch_cpus.iq.fu_full::SimdAes              0      0.00%     82.41% # attempts to use FU when none available
system.switch_cpus.iq.fu_full::SimdAesMix            0      0.00%     82.41% # attempts to use FU when none available
system.switch_cpus.iq.fu_full::SimdSha1Hash            0      0.00%     82.41% # attempts to use FU when none available
system.switch_cpus.iq.fu_full::SimdSha1Hash2            0      0.00%     82.41% # attempts to use FU when none available
system.switch_cpus.iq.fu_full::SimdSha256Hash            0      0.00%     82.41% # attempts to use FU when none available
system.switch_cpus.iq.fu_full::SimdSha256Hash2            0      0.00%     82.41% # attempts to use FU when none available
system.switch_cpus.iq.fu_full::SimdShaSigma2            0      0.00%     82.41% # attempts to use FU when none available
system.switch_cpus.iq.fu_full::SimdShaSigma3            0      0.00%     82.41% # attempts to use FU when none available
system.switch_cpus.iq.fu_full::SimdPredAlu            0      0.00%     82.41% # attempts to use FU when none available
system.switch_cpus.iq.fu_full::MemRead          30287      5.02%     87.43% # attempts to use FU when none available
system.switch_cpus.iq.fu_full::MemWrite         27979      4.63%     92.06% # attempts to use FU when none available
system.switch_cpus.iq.fu_full::FloatMemRead        38204      6.33%     98.39% # attempts to use FU when none available
system.switch_cpus.iq.fu_full::FloatMemWrite         9741      1.61%    100.00% # attempts to use FU when none available
system.switch_cpus.iq.fu_full::IprAccess            0      0.00%    100.00% # attempts to use FU when none available
system.switch_cpus.iq.fu_full::InstPrefetch            0      0.00%    100.00% # attempts to use FU when none available
system.switch_cpus.iq.int_alu_accesses       31782230                       # Number of integer alu accesses
system.switch_cpus.iq.int_inst_queue_reads     82399625                       # Number of integer instruction queue reads
system.switch_cpus.iq.int_inst_queue_wakeup_accesses     30022071                       # Number of integer instruction queue wakeup accesses
system.switch_cpus.iq.int_inst_queue_writes     56195278                       # Number of integer instruction queue writes
system.switch_cpus.iq.iqInstsAdded           37956789                       # Number of instructions added to the IQ (excludes non-spec)
system.switch_cpus.iq.iqInstsIssued          32504936                       # Number of instructions issued
system.switch_cpus.iq.iqNonSpecInstsAdded         6845                       # Number of non-speculative instructions added to the IQ
system.switch_cpus.iq.iqSquashedInstsExamined     19095707                       # Number of squashed instructions iterated over during squash; mainly for profiling
system.switch_cpus.iq.iqSquashedInstsIssued       166980                       # Number of squashed instructions issued
system.switch_cpus.iq.iqSquashedNonSpecRemoved         4621                       # Number of squashed non-spec instructions that were removed
system.switch_cpus.iq.iqSquashedOperandsExamined     23224681                       # Number of squashed operands that are examined and possibly removed from graph
system.switch_cpus.iq.issued_per_cycle::samples     17635910                       # Number of insts issued each cycle
system.switch_cpus.iq.issued_per_cycle::mean     1.843111                       # Number of insts issued each cycle
system.switch_cpus.iq.issued_per_cycle::stdev     2.416118                       # Number of insts issued each cycle
system.switch_cpus.iq.issued_per_cycle::underflows            0      0.00%      0.00% # Number of insts issued each cycle
system.switch_cpus.iq.issued_per_cycle::0      9377510     53.17%     53.17% # Number of insts issued each cycle
system.switch_cpus.iq.issued_per_cycle::1      1222512      6.93%     60.10% # Number of insts issued each cycle
system.switch_cpus.iq.issued_per_cycle::2      1247770      7.08%     67.18% # Number of insts issued each cycle
system.switch_cpus.iq.issued_per_cycle::3      1220122      6.92%     74.10% # Number of insts issued each cycle
system.switch_cpus.iq.issued_per_cycle::4      1332116      7.55%     81.65% # Number of insts issued each cycle
system.switch_cpus.iq.issued_per_cycle::5      1067324      6.05%     87.70% # Number of insts issued each cycle
system.switch_cpus.iq.issued_per_cycle::6      1093998      6.20%     93.91% # Number of insts issued each cycle
system.switch_cpus.iq.issued_per_cycle::7       699018      3.96%     97.87% # Number of insts issued each cycle
system.switch_cpus.iq.issued_per_cycle::8       375540      2.13%    100.00% # Number of insts issued each cycle
system.switch_cpus.iq.issued_per_cycle::overflows            0      0.00%    100.00% # Number of insts issued each cycle
system.switch_cpus.iq.issued_per_cycle::min_value            0                       # Number of insts issued each cycle
system.switch_cpus.iq.issued_per_cycle::max_value            8                       # Number of insts issued each cycle
system.switch_cpus.iq.issued_per_cycle::total     17635910                       # Number of insts issued each cycle
system.switch_cpus.iq.rate                   1.751346                       # Inst issue rate
system.switch_cpus.iq.vec_alu_accesses              0                       # Number of vector alu accesses
system.switch_cpus.iq.vec_inst_queue_reads            0                       # Number of vector instruction queue reads
system.switch_cpus.iq.vec_inst_queue_wakeup_accesses            0                       # Number of vector instruction queue wakeup accesses
system.switch_cpus.iq.vec_inst_queue_writes            0                       # Number of vector instruction queue writes
system.switch_cpus.memDep0.conflictingLoads       201045                       # Number of conflicting loads.
system.switch_cpus.memDep0.conflictingStores       253733                       # Number of conflicting stores.
system.switch_cpus.memDep0.insertedLoads      5096943                       # Number of loads inserted to the mem dependence unit.
system.switch_cpus.memDep0.insertedStores      2847658                       # Number of stores inserted to the mem dependence unit.
system.switch_cpus.misc_regfile_reads        13912497                       # number of misc regfile reads
system.switch_cpus.numCycles                 18559977                       # number of cpu cycles simulated
system.switch_cpus.numWorkItemsCompleted            0                       # number of work items this cpu completed
system.switch_cpus.numWorkItemsStarted              0                       # number of work items this cpu started
system.switch_cpus.timesIdled                   72078                       # Number of times that the entire CPU went into an idle state and unscheduled itself
system.tol2bus.snoop_filter.hit_multi_requests         1055                       # Number of requests hitting in the snoop filter with multiple (>1) holders of the requested data.
system.tol2bus.snoop_filter.hit_multi_snoops            8                       # Number of snoops hitting in the snoop filter with multiple (>1) holders of the requested data.
system.tol2bus.snoop_filter.hit_single_requests       260772                       # Number of requests hitting in the snoop filter with a single holder of the requested data.
system.tol2bus.snoop_filter.hit_single_snoops         1012                       # Number of snoops hitting in the snoop filter with a single holder of the requested data.
system.tol2bus.snoop_filter.tot_requests       521949                       # Total number of requests made to the snoop filter.
system.tol2bus.snoop_filter.tot_snoops           1020                       # Total number of snoops made to the snoop filter.
system.clk_domain.clock                          1000                       # Clock period in ticks
system.cpu.branchPred.lookups                       0                       # Number of BP lookups
system.cpu.branchPred.condPredicted                 0                       # Number of conditional branches predicted
system.cpu.branchPred.condIncorrect                 0                       # Number of conditional branches incorrect
system.cpu.branchPred.BTBLookups                    0                       # Number of BTB lookups
system.cpu.branchPred.BTBHits                       0                       # Number of BTB hits
system.cpu.branchPred.BTBHitPct                   nan                       # BTB Hit Percentage
system.cpu.branchPred.RASUsed                       0                       # Number of times the RAS was used to get a target.
system.cpu.branchPred.RASIncorrect                  0                       # Number of incorrect RAS predictions.
system.cpu.branchPred.indirectLookups               0                       # Number of indirect predictor lookups.
system.cpu.branchPred.indirectHits                  0                       # Number of indirect target hits.
system.cpu.branchPred.indirectMisses                0                       # Number of indirect misses.
system.cpu.branchPred.indirectMispredicted            0                       # Number of mispredicted indirect branches.
system.cpu.dcache.demand_hits::.switch_cpus.data      5130875                       # number of demand (read+write) hits
system.cpu.dcache.demand_hits::total          5130875                       # number of demand (read+write) hits
system.cpu.dcache.overall_hits::.switch_cpus.data      5159339                       # number of overall hits
system.cpu.dcache.overall_hits::total         5159339                       # number of overall hits
system.cpu.dcache.demand_misses::.switch_cpus.data        66804                       # number of demand (read+write) misses
system.cpu.dcache.demand_misses::total          66804                       # number of demand (read+write) misses
system.cpu.dcache.overall_misses::.switch_cpus.data        68702                       # number of overall misses
system.cpu.dcache.overall_misses::total         68702                       # number of overall misses
system.cpu.dcache.demand_miss_latency::.switch_cpus.data   1783130498                       # number of demand (read+write) miss cycles
system.cpu.dcache.demand_miss_latency::total   1783130498                       # number of demand (read+write) miss cycles
system.cpu.dcache.overall_miss_latency::.switch_cpus.data   1783130498                       # number of overall miss cycles
system.cpu.dcache.overall_miss_latency::total   1783130498                       # number of overall miss cycles
system.cpu.dcache.demand_accesses::.switch_cpus.data      5197679                       # number of demand (read+write) accesses
system.cpu.dcache.demand_accesses::total      5197679                       # number of demand (read+write) accesses
system.cpu.dcache.overall_accesses::.switch_cpus.data      5228041                       # number of overall (read+write) accesses
system.cpu.dcache.overall_accesses::total      5228041                       # number of overall (read+write) accesses
system.cpu.dcache.demand_miss_rate::.switch_cpus.data     0.012853                       # miss rate for demand accesses
system.cpu.dcache.demand_miss_rate::total     0.012853                       # miss rate for demand accesses
system.cpu.dcache.overall_miss_rate::.switch_cpus.data     0.013141                       # miss rate for overall accesses
system.cpu.dcache.overall_miss_rate::total     0.013141                       # miss rate for overall accesses
system.cpu.dcache.demand_avg_miss_latency::.switch_cpus.data 26691.972008                       # average overall miss latency
system.cpu.dcache.demand_avg_miss_latency::total 26691.972008                       # average overall miss latency
system.cpu.dcache.overall_avg_miss_latency::.switch_cpus.data 25954.564612                       # average overall miss latency
system.cpu.dcache.overall_avg_miss_latency::total 25954.564612                       # average overall miss latency
system.cpu.dcache.blocked_cycles::no_mshrs         2904                       # number of cycles access was blocked
system.cpu.dcache.blocked_cycles::no_targets            0                       # number of cycles access was blocked
system.cpu.dcache.blocked::no_mshrs               131                       # number of cycles access was blocked
system.cpu.dcache.blocked::no_targets               0                       # number of cycles access was blocked
system.cpu.dcache.avg_blocked_cycles::no_mshrs    22.167939                       # average number of cycles each access was blocked
system.cpu.dcache.avg_blocked_cycles::no_targets          nan                       # average number of cycles each access was blocked
system.cpu.dcache.writebacks::.writebacks        37870                       # number of writebacks
system.cpu.dcache.writebacks::total             37870                       # number of writebacks
system.cpu.dcache.demand_mshr_hits::.switch_cpus.data        17259                       # number of demand (read+write) MSHR hits
system.cpu.dcache.demand_mshr_hits::total        17259                       # number of demand (read+write) MSHR hits
system.cpu.dcache.overall_mshr_hits::.switch_cpus.data        17259                       # number of overall MSHR hits
system.cpu.dcache.overall_mshr_hits::total        17259                       # number of overall MSHR hits
system.cpu.dcache.demand_mshr_misses::.switch_cpus.data        49545                       # number of demand (read+write) MSHR misses
system.cpu.dcache.demand_mshr_misses::total        49545                       # number of demand (read+write) MSHR misses
system.cpu.dcache.overall_mshr_misses::.switch_cpus.data        50225                       # number of overall MSHR misses
system.cpu.dcache.overall_mshr_misses::total        50225                       # number of overall MSHR misses
system.cpu.dcache.demand_mshr_miss_latency::.switch_cpus.data   1437121998                       # number of demand (read+write) MSHR miss cycles
system.cpu.dcache.demand_mshr_miss_latency::total   1437121998                       # number of demand (read+write) MSHR miss cycles
system.cpu.dcache.overall_mshr_miss_latency::.switch_cpus.data   1478343998                       # number of overall MSHR miss cycles
system.cpu.dcache.overall_mshr_miss_latency::total   1478343998                       # number of overall MSHR miss cycles
system.cpu.dcache.demand_mshr_miss_rate::.switch_cpus.data     0.009532                       # mshr miss rate for demand accesses
system.cpu.dcache.demand_mshr_miss_rate::total     0.009532                       # mshr miss rate for demand accesses
system.cpu.dcache.overall_mshr_miss_rate::.switch_cpus.data     0.009607                       # mshr miss rate for overall accesses
system.cpu.dcache.overall_mshr_miss_rate::total     0.009607                       # mshr miss rate for overall accesses
system.cpu.dcache.demand_avg_mshr_miss_latency::.switch_cpus.data 29006.398183                       # average overall mshr miss latency
system.cpu.dcache.demand_avg_mshr_miss_latency::total 29006.398183                       # average overall mshr miss latency
system.cpu.dcache.overall_avg_mshr_miss_latency::.switch_cpus.data 29434.425047                       # average overall mshr miss latency
system.cpu.dcache.overall_avg_mshr_miss_latency::total 29434.425047                       # average overall mshr miss latency
system.cpu.dcache.replacements                  49881                       # number of replacements
system.cpu.dcache.ReadReq_hits::.switch_cpus.data      3768133                       # number of ReadReq hits
system.cpu.dcache.ReadReq_hits::total         3768133                       # number of ReadReq hits
system.cpu.dcache.ReadReq_misses::.switch_cpus.data        50932                       # number of ReadReq misses
system.cpu.dcache.ReadReq_misses::total         50932                       # number of ReadReq misses
system.cpu.dcache.ReadReq_miss_latency::.switch_cpus.data    931679500                       # number of ReadReq miss cycles
system.cpu.dcache.ReadReq_miss_latency::total    931679500                       # number of ReadReq miss cycles
system.cpu.dcache.ReadReq_accesses::.switch_cpus.data      3819065                       # number of ReadReq accesses(hits+misses)
system.cpu.dcache.ReadReq_accesses::total      3819065                       # number of ReadReq accesses(hits+misses)
system.cpu.dcache.ReadReq_miss_rate::.switch_cpus.data     0.013336                       # miss rate for ReadReq accesses
system.cpu.dcache.ReadReq_miss_rate::total     0.013336                       # miss rate for ReadReq accesses
system.cpu.dcache.ReadReq_avg_miss_latency::.switch_cpus.data 18292.615644                       # average ReadReq miss latency
system.cpu.dcache.ReadReq_avg_miss_latency::total 18292.615644                       # average ReadReq miss latency
system.cpu.dcache.ReadReq_mshr_hits::.switch_cpus.data        16585                       # number of ReadReq MSHR hits
system.cpu.dcache.ReadReq_mshr_hits::total        16585                       # number of ReadReq MSHR hits
system.cpu.dcache.ReadReq_mshr_misses::.switch_cpus.data        34347                       # number of ReadReq MSHR misses
system.cpu.dcache.ReadReq_mshr_misses::total        34347                       # number of ReadReq MSHR misses
system.cpu.dcache.ReadReq_mshr_miss_latency::.switch_cpus.data    611665000                       # number of ReadReq MSHR miss cycles
system.cpu.dcache.ReadReq_mshr_miss_latency::total    611665000                       # number of ReadReq MSHR miss cycles
system.cpu.dcache.ReadReq_mshr_miss_rate::.switch_cpus.data     0.008994                       # mshr miss rate for ReadReq accesses
system.cpu.dcache.ReadReq_mshr_miss_rate::total     0.008994                       # mshr miss rate for ReadReq accesses
system.cpu.dcache.ReadReq_avg_mshr_miss_latency::.switch_cpus.data 17808.396658                       # average ReadReq mshr miss latency
system.cpu.dcache.ReadReq_avg_mshr_miss_latency::total 17808.396658                       # average ReadReq mshr miss latency
system.cpu.dcache.WriteReq_hits::.switch_cpus.data      1362742                       # number of WriteReq hits
system.cpu.dcache.WriteReq_hits::total        1362742                       # number of WriteReq hits
system.cpu.dcache.WriteReq_misses::.switch_cpus.data        15872                       # number of WriteReq misses
system.cpu.dcache.WriteReq_misses::total        15872                       # number of WriteReq misses
system.cpu.dcache.WriteReq_miss_latency::.switch_cpus.data    851450998                       # number of WriteReq miss cycles
system.cpu.dcache.WriteReq_miss_latency::total    851450998                       # number of WriteReq miss cycles
system.cpu.dcache.WriteReq_accesses::.switch_cpus.data      1378614                       # number of WriteReq accesses(hits+misses)
system.cpu.dcache.WriteReq_accesses::total      1378614                       # number of WriteReq accesses(hits+misses)
system.cpu.dcache.WriteReq_miss_rate::.switch_cpus.data     0.011513                       # miss rate for WriteReq accesses
system.cpu.dcache.WriteReq_miss_rate::total     0.011513                       # miss rate for WriteReq accesses
system.cpu.dcache.WriteReq_avg_miss_latency::.switch_cpus.data 53644.846144                       # average WriteReq miss latency
system.cpu.dcache.WriteReq_avg_miss_latency::total 53644.846144                       # average WriteReq miss latency
system.cpu.dcache.WriteReq_mshr_hits::.switch_cpus.data          674                       # number of WriteReq MSHR hits
system.cpu.dcache.WriteReq_mshr_hits::total          674                       # number of WriteReq MSHR hits
system.cpu.dcache.WriteReq_mshr_misses::.switch_cpus.data        15198                       # number of WriteReq MSHR misses
system.cpu.dcache.WriteReq_mshr_misses::total        15198                       # number of WriteReq MSHR misses
system.cpu.dcache.WriteReq_mshr_miss_latency::.switch_cpus.data    825456998                       # number of WriteReq MSHR miss cycles
system.cpu.dcache.WriteReq_mshr_miss_latency::total    825456998                       # number of WriteReq MSHR miss cycles
system.cpu.dcache.WriteReq_mshr_miss_rate::.switch_cpus.data     0.011024                       # mshr miss rate for WriteReq accesses
system.cpu.dcache.WriteReq_mshr_miss_rate::total     0.011024                       # mshr miss rate for WriteReq accesses
system.cpu.dcache.WriteReq_avg_mshr_miss_latency::.switch_cpus.data 54313.527964                       # average WriteReq mshr miss latency
system.cpu.dcache.WriteReq_avg_mshr_miss_latency::total 54313.527964                       # average WriteReq mshr miss latency
system.cpu.dcache.SoftPFReq_hits::.switch_cpus.data        28464                       # number of SoftPFReq hits
system.cpu.dcache.SoftPFReq_hits::total         28464                       # number of SoftPFReq hits
system.cpu.dcache.SoftPFReq_misses::.switch_cpus.data         1898                       # number of SoftPFReq misses
system.cpu.dcache.SoftPFReq_misses::total         1898                       # number of SoftPFReq misses
system.cpu.dcache.SoftPFReq_accesses::.switch_cpus.data        30362                       # number of SoftPFReq accesses(hits+misses)
system.cpu.dcache.SoftPFReq_accesses::total        30362                       # number of SoftPFReq accesses(hits+misses)
system.cpu.dcache.SoftPFReq_miss_rate::.switch_cpus.data     0.062512                       # miss rate for SoftPFReq accesses
system.cpu.dcache.SoftPFReq_miss_rate::total     0.062512                       # miss rate for SoftPFReq accesses
system.cpu.dcache.SoftPFReq_mshr_misses::.switch_cpus.data          680                       # number of SoftPFReq MSHR misses
system.cpu.dcache.SoftPFReq_mshr_misses::total          680                       # number of SoftPFReq MSHR misses
system.cpu.dcache.SoftPFReq_mshr_miss_latency::.switch_cpus.data     41222000                       # number of SoftPFReq MSHR miss cycles
system.cpu.dcache.SoftPFReq_mshr_miss_latency::total     41222000                       # number of SoftPFReq MSHR miss cycles
system.cpu.dcache.SoftPFReq_mshr_miss_rate::.switch_cpus.data     0.022396                       # mshr miss rate for SoftPFReq accesses
system.cpu.dcache.SoftPFReq_mshr_miss_rate::total     0.022396                       # mshr miss rate for SoftPFReq accesses
system.cpu.dcache.SoftPFReq_avg_mshr_miss_latency::.switch_cpus.data 60620.588235                       # average SoftPFReq mshr miss latency
system.cpu.dcache.SoftPFReq_avg_mshr_miss_latency::total 60620.588235                       # average SoftPFReq mshr miss latency
system.cpu.dcache.power_state.pwrStateResidencyTicks::UNDEFINED  10350158500                       # Cumulative time (in ticks) in various power states
system.cpu.dcache.tags.tagsinuse                 1024                       # Cycle average of tags in use
system.cpu.dcache.tags.total_refs             5367737                       # Total number of references to valid blocks.
system.cpu.dcache.tags.sampled_refs             50905                       # Sample count of references to valid blocks.
system.cpu.dcache.tags.avg_refs            105.446164                       # Average number of references to valid blocks.
system.cpu.dcache.tags.warmup_cycle                 0                       # Cycle when the warmup percentage was hit.
system.cpu.dcache.tags.occ_blocks::.cpu.data    40.000064                       # Average occupied blocks per requestor
system.cpu.dcache.tags.occ_blocks::.switch_cpus.data   983.999936                       # Average occupied blocks per requestor
system.cpu.dcache.tags.occ_percent::.cpu.data     0.039063                       # Average percentage of cache occupancy
system.cpu.dcache.tags.occ_percent::.switch_cpus.data     0.960937                       # Average percentage of cache occupancy
system.cpu.dcache.tags.occ_percent::total            1                       # Average percentage of cache occupancy
system.cpu.dcache.tags.occ_task_id_blocks::1024         1024                       # Occupied blocks per task id
system.cpu.dcache.tags.age_task_id_blocks_1024::0           37                       # Occupied blocks per task id
system.cpu.dcache.tags.age_task_id_blocks_1024::1          223                       # Occupied blocks per task id
system.cpu.dcache.tags.age_task_id_blocks_1024::2          752                       # Occupied blocks per task id
system.cpu.dcache.tags.age_task_id_blocks_1024::3           12                       # Occupied blocks per task id
system.cpu.dcache.tags.occ_task_id_percent::1024            1                       # Percentage of cache occupancy per task id
system.cpu.dcache.tags.tag_accesses          10505963                       # Number of tag accesses
system.cpu.dcache.tags.data_accesses         10505963                       # Number of data accesses
system.cpu.dcache.tags.power_state.pwrStateResidencyTicks::UNDEFINED  10350158500                       # Cumulative time (in ticks) in various power states
system.cpu.dtb.rdAccesses                           0                       # TLB accesses on read requests
system.cpu.dtb.wrAccesses                           0                       # TLB accesses on write requests
system.cpu.dtb.rdMisses                             0                       # TLB misses on read requests
system.cpu.dtb.wrMisses                             0                       # TLB misses on write requests
system.cpu.dtb.walker.power_state.pwrStateResidencyTicks::UNDEFINED  10350158500                       # Cumulative time (in ticks) in various power states
system.cpu.dtb_walker_cache.blocked_cycles::no_mshrs            0                       # number of cycles access was blocked
system.cpu.dtb_walker_cache.blocked_cycles::no_targets            0                       # number of cycles access was blocked
system.cpu.dtb_walker_cache.blocked::no_mshrs            0                       # number of cycles access was blocked
system.cpu.dtb_walker_cache.blocked::no_targets            0                       # number of cycles access was blocked
system.cpu.dtb_walker_cache.avg_blocked_cycles::no_mshrs          nan                       # average number of cycles each access was blocked
system.cpu.dtb_walker_cache.avg_blocked_cycles::no_targets          nan                       # average number of cycles each access was blocked
system.cpu.dtb_walker_cache.replacements            0                       # number of replacements
system.cpu.dtb_walker_cache.power_state.pwrStateResidencyTicks::UNDEFINED  10350158500                       # Cumulative time (in ticks) in various power states
system.cpu.dtb_walker_cache.tags.tagsinuse            0                       # Cycle average of tags in use
system.cpu.dtb_walker_cache.tags.total_refs            0                       # Total number of references to valid blocks.
system.cpu.dtb_walker_cache.tags.sampled_refs            0                       # Sample count of references to valid blocks.
system.cpu.dtb_walker_cache.tags.avg_refs          nan                       # Average number of references to valid blocks.
system.cpu.dtb_walker_cache.tags.warmup_cycle            0                       # Cycle when the warmup percentage was hit.
system.cpu.dtb_walker_cache.tags.tag_accesses            0                       # Number of tag accesses
system.cpu.dtb_walker_cache.tags.data_accesses            0                       # Number of data accesses
system.cpu.dtb_walker_cache.tags.power_state.pwrStateResidencyTicks::UNDEFINED  10350158500                       # Cumulative time (in ticks) in various power states
system.cpu.icache.demand_hits::.switch_cpus.inst      3725251                       # number of demand (read+write) hits
system.cpu.icache.demand_hits::total          3725251                       # number of demand (read+write) hits
system.cpu.icache.overall_hits::.switch_cpus.inst      3725251                       # number of overall hits
system.cpu.icache.overall_hits::total         3725251                       # number of overall hits
system.cpu.icache.demand_misses::.switch_cpus.inst       238842                       # number of demand (read+write) misses
system.cpu.icache.demand_misses::total         238842                       # number of demand (read+write) misses
system.cpu.icache.overall_misses::.switch_cpus.inst       238842                       # number of overall misses
system.cpu.icache.overall_misses::total        238842                       # number of overall misses
system.cpu.icache.demand_miss_latency::.switch_cpus.inst   3507786485                       # number of demand (read+write) miss cycles
system.cpu.icache.demand_miss_latency::total   3507786485                       # number of demand (read+write) miss cycles
system.cpu.icache.overall_miss_latency::.switch_cpus.inst   3507786485                       # number of overall miss cycles
system.cpu.icache.overall_miss_latency::total   3507786485                       # number of overall miss cycles
system.cpu.icache.demand_accesses::.switch_cpus.inst      3964093                       # number of demand (read+write) accesses
system.cpu.icache.demand_accesses::total      3964093                       # number of demand (read+write) accesses
system.cpu.icache.overall_accesses::.switch_cpus.inst      3964093                       # number of overall (read+write) accesses
system.cpu.icache.overall_accesses::total      3964093                       # number of overall (read+write) accesses
system.cpu.icache.demand_miss_rate::.switch_cpus.inst     0.060251                       # miss rate for demand accesses
system.cpu.icache.demand_miss_rate::total     0.060251                       # miss rate for demand accesses
system.cpu.icache.overall_miss_rate::.switch_cpus.inst     0.060251                       # miss rate for overall accesses
system.cpu.icache.overall_miss_rate::total     0.060251                       # miss rate for overall accesses
system.cpu.icache.demand_avg_miss_latency::.switch_cpus.inst 14686.640059                       # average overall miss latency
system.cpu.icache.demand_avg_miss_latency::total 14686.640059                       # average overall miss latency
system.cpu.icache.overall_avg_miss_latency::.switch_cpus.inst 14686.640059                       # average overall miss latency
system.cpu.icache.overall_avg_miss_latency::total 14686.640059                       # average overall miss latency
system.cpu.icache.blocked_cycles::no_mshrs         5658                       # number of cycles access was blocked
system.cpu.icache.blocked_cycles::no_targets            0                       # number of cycles access was blocked
system.cpu.icache.blocked::no_mshrs               215                       # number of cycles access was blocked
system.cpu.icache.blocked::no_targets               0                       # number of cycles access was blocked
system.cpu.icache.avg_blocked_cycles::no_mshrs    26.316279                       # average number of cycles each access was blocked
system.cpu.icache.avg_blocked_cycles::no_targets          nan                       # average number of cycles each access was blocked
system.cpu.icache.writebacks::.writebacks       210788                       # number of writebacks
system.cpu.icache.writebacks::total            210788                       # number of writebacks
system.cpu.icache.demand_mshr_hits::.switch_cpus.inst        27787                       # number of demand (read+write) MSHR hits
system.cpu.icache.demand_mshr_hits::total        27787                       # number of demand (read+write) MSHR hits
system.cpu.icache.overall_mshr_hits::.switch_cpus.inst        27787                       # number of overall MSHR hits
system.cpu.icache.overall_mshr_hits::total        27787                       # number of overall MSHR hits
system.cpu.icache.demand_mshr_misses::.switch_cpus.inst       211055                       # number of demand (read+write) MSHR misses
system.cpu.icache.demand_mshr_misses::total       211055                       # number of demand (read+write) MSHR misses
system.cpu.icache.overall_mshr_misses::.switch_cpus.inst       211055                       # number of overall MSHR misses
system.cpu.icache.overall_mshr_misses::total       211055                       # number of overall MSHR misses
system.cpu.icache.demand_mshr_miss_latency::.switch_cpus.inst   3045479985                       # number of demand (read+write) MSHR miss cycles
system.cpu.icache.demand_mshr_miss_latency::total   3045479985                       # number of demand (read+write) MSHR miss cycles
system.cpu.icache.overall_mshr_miss_latency::.switch_cpus.inst   3045479985                       # number of overall MSHR miss cycles
system.cpu.icache.overall_mshr_miss_latency::total   3045479985                       # number of overall MSHR miss cycles
system.cpu.icache.demand_mshr_miss_rate::.switch_cpus.inst     0.053242                       # mshr miss rate for demand accesses
system.cpu.icache.demand_mshr_miss_rate::total     0.053242                       # mshr miss rate for demand accesses
system.cpu.icache.overall_mshr_miss_rate::.switch_cpus.inst     0.053242                       # mshr miss rate for overall accesses
system.cpu.icache.overall_mshr_miss_rate::total     0.053242                       # mshr miss rate for overall accesses
system.cpu.icache.demand_avg_mshr_miss_latency::.switch_cpus.inst 14429.793111                       # average overall mshr miss latency
system.cpu.icache.demand_avg_mshr_miss_latency::total 14429.793111                       # average overall mshr miss latency
system.cpu.icache.overall_avg_mshr_miss_latency::.switch_cpus.inst 14429.793111                       # average overall mshr miss latency
system.cpu.icache.overall_avg_mshr_miss_latency::total 14429.793111                       # average overall mshr miss latency
system.cpu.icache.replacements                 210788                       # number of replacements
system.cpu.icache.ReadReq_hits::.switch_cpus.inst      3725251                       # number of ReadReq hits
system.cpu.icache.ReadReq_hits::total         3725251                       # number of ReadReq hits
system.cpu.icache.ReadReq_misses::.switch_cpus.inst       238842                       # number of ReadReq misses
system.cpu.icache.ReadReq_misses::total        238842                       # number of ReadReq misses
system.cpu.icache.ReadReq_miss_latency::.switch_cpus.inst   3507786485                       # number of ReadReq miss cycles
system.cpu.icache.ReadReq_miss_latency::total   3507786485                       # number of ReadReq miss cycles
system.cpu.icache.ReadReq_accesses::.switch_cpus.inst      3964093                       # number of ReadReq accesses(hits+misses)
system.cpu.icache.ReadReq_accesses::total      3964093                       # number of ReadReq accesses(hits+misses)
system.cpu.icache.ReadReq_miss_rate::.switch_cpus.inst     0.060251                       # miss rate for ReadReq accesses
system.cpu.icache.ReadReq_miss_rate::total     0.060251                       # miss rate for ReadReq accesses
system.cpu.icache.ReadReq_avg_miss_latency::.switch_cpus.inst 14686.640059                       # average ReadReq miss latency
system.cpu.icache.ReadReq_avg_miss_latency::total 14686.640059                       # average ReadReq miss latency
system.cpu.icache.ReadReq_mshr_hits::.switch_cpus.inst        27787                       # number of ReadReq MSHR hits
system.cpu.icache.ReadReq_mshr_hits::total        27787                       # number of ReadReq MSHR hits
system.cpu.icache.ReadReq_mshr_misses::.switch_cpus.inst       211055                       # number of ReadReq MSHR misses
system.cpu.icache.ReadReq_mshr_misses::total       211055                       # number of ReadReq MSHR misses
system.cpu.icache.ReadReq_mshr_miss_latency::.switch_cpus.inst   3045479985                       # number of ReadReq MSHR miss cycles
system.cpu.icache.ReadReq_mshr_miss_latency::total   3045479985                       # number of ReadReq MSHR miss cycles
system.cpu.icache.ReadReq_mshr_miss_rate::.switch_cpus.inst     0.053242                       # mshr miss rate for ReadReq accesses
system.cpu.icache.ReadReq_mshr_miss_rate::total     0.053242                       # mshr miss rate for ReadReq accesses
system.cpu.icache.ReadReq_avg_mshr_miss_latency::.switch_cpus.inst 14429.793111                       # average ReadReq mshr miss latency
system.cpu.icache.ReadReq_avg_mshr_miss_latency::total 14429.793111                       # average ReadReq mshr miss latency
system.cpu.icache.power_state.pwrStateResidencyTicks::UNDEFINED  10350158500                       # Cumulative time (in ticks) in various power states
system.cpu.icache.tags.tagsinuse          1023.312497                       # Cycle average of tags in use
system.cpu.icache.tags.total_refs             4235061                       # Total number of references to valid blocks.
system.cpu.icache.tags.sampled_refs            212069                       # Sample count of references to valid blocks.
system.cpu.icache.tags.avg_refs             19.970203                       # Average number of references to valid blocks.
system.cpu.icache.tags.warmup_cycle                 0                       # Cycle when the warmup percentage was hit.
system.cpu.icache.tags.occ_blocks::.cpu.inst    37.617739                       # Average occupied blocks per requestor
system.cpu.icache.tags.occ_blocks::.switch_cpus.inst   985.694759                       # Average occupied blocks per requestor
system.cpu.icache.tags.occ_percent::.cpu.inst     0.036736                       # Average percentage of cache occupancy
system.cpu.icache.tags.occ_percent::.switch_cpus.inst     0.962593                       # Average percentage of cache occupancy
system.cpu.icache.tags.occ_percent::total     0.999329                       # Average percentage of cache occupancy
system.cpu.icache.tags.occ_task_id_blocks::1024         1024                       # Occupied blocks per task id
system.cpu.icache.tags.age_task_id_blocks_1024::0          307                       # Occupied blocks per task id
system.cpu.icache.tags.age_task_id_blocks_1024::1          403                       # Occupied blocks per task id
system.cpu.icache.tags.age_task_id_blocks_1024::2          272                       # Occupied blocks per task id
system.cpu.icache.tags.age_task_id_blocks_1024::3           41                       # Occupied blocks per task id
system.cpu.icache.tags.age_task_id_blocks_1024::4            1                       # Occupied blocks per task id
system.cpu.icache.tags.occ_task_id_percent::1024            1                       # Percentage of cache occupancy per task id
system.cpu.icache.tags.tag_accesses           8139240                       # Number of tag accesses
system.cpu.icache.tags.data_accesses          8139240                       # Number of data accesses
system.cpu.icache.tags.power_state.pwrStateResidencyTicks::UNDEFINED  10350158500                       # Cumulative time (in ticks) in various power states
system.cpu.interrupts.clk_domain.clock           8000                       # Clock period in ticks
system.cpu.itb.rdAccesses                           0                       # TLB accesses on read requests
system.cpu.itb.wrAccesses                           0                       # TLB accesses on write requests
system.cpu.itb.rdMisses                             0                       # TLB misses on read requests
system.cpu.itb.wrMisses                             0                       # TLB misses on write requests
system.cpu.itb.walker.power_state.pwrStateResidencyTicks::UNDEFINED  10350158500                       # Cumulative time (in ticks) in various power states
system.cpu.itb_walker_cache.blocked_cycles::no_mshrs            0                       # number of cycles access was blocked
system.cpu.itb_walker_cache.blocked_cycles::no_targets            0                       # number of cycles access was blocked
system.cpu.itb_walker_cache.blocked::no_mshrs            0                       # number of cycles access was blocked
system.cpu.itb_walker_cache.blocked::no_targets            0                       # number of cycles access was blocked
system.cpu.itb_walker_cache.avg_blocked_cycles::no_mshrs          nan                       # average number of cycles each access was blocked
system.cpu.itb_walker_cache.avg_blocked_cycles::no_targets          nan                       # average number of cycles each access was blocked
system.cpu.itb_walker_cache.replacements            0                       # number of replacements
system.cpu.itb_walker_cache.power_state.pwrStateResidencyTicks::UNDEFINED  10350158500                       # Cumulative time (in ticks) in various power states
system.cpu.itb_walker_cache.tags.tagsinuse            0                       # Cycle average of tags in use
system.cpu.itb_walker_cache.tags.total_refs            0                       # Total number of references to valid blocks.
system.cpu.itb_walker_cache.tags.sampled_refs            0                       # Sample count of references to valid blocks.
system.cpu.itb_walker_cache.tags.avg_refs          nan                       # Average number of references to valid blocks.
system.cpu.itb_walker_cache.tags.warmup_cycle            0                       # Cycle when the warmup percentage was hit.
system.cpu.itb_walker_cache.tags.tag_accesses            0                       # Number of tag accesses
system.cpu.itb_walker_cache.tags.data_accesses            0                       # Number of data accesses
system.cpu.itb_walker_cache.tags.power_state.pwrStateResidencyTicks::UNDEFINED  10350158500                       # Cumulative time (in ticks) in various power states
system.cpu.power_state.pwrStateResidencyTicks::OFF   9279988500                       # Cumulative time (in ticks) in various power states
system.cpu.thread_0.numInsts                        0                       # Number of Instructions committed
system.cpu.thread_0.numOps                          0                       # Number of Ops committed
system.cpu.thread_0.numMemRefs                      0                       # Number of Memory References
system.cpu_clk_domain.clock                       500                       # Clock period in ticks
system.cpu_voltage_domain.voltage                   1                       # Voltage in Volts
system.l2.demand_hits::.switch_cpus.inst       203759                       # number of demand (read+write) hits
system.l2.demand_hits::.switch_cpus.data        37340                       # number of demand (read+write) hits
system.l2.demand_hits::total                   241099                       # number of demand (read+write) hits
system.l2.overall_hits::.switch_cpus.inst       203759                       # number of overall hits
system.l2.overall_hits::.switch_cpus.data        37340                       # number of overall hits
system.l2.overall_hits::total                  241099                       # number of overall hits
system.l2.demand_misses::.switch_cpus.inst         6906                       # number of demand (read+write) misses
system.l2.demand_misses::.switch_cpus.data        12541                       # number of demand (read+write) misses
system.l2.demand_misses::total                  19447                       # number of demand (read+write) misses
system.l2.overall_misses::.switch_cpus.inst         6906                       # number of overall misses
system.l2.overall_misses::.switch_cpus.data        12541                       # number of overall misses
system.l2.overall_misses::total                 19447                       # number of overall misses
system.l2.demand_miss_latency::.switch_cpus.inst    576103500                       # number of demand (read+write) miss cycles
system.l2.demand_miss_latency::.switch_cpus.data   1002705500                       # number of demand (read+write) miss cycles
system.l2.demand_miss_latency::total       1578809000                       # number of demand (read+write) miss cycles
system.l2.overall_miss_latency::.switch_cpus.inst    576103500                       # number of overall miss cycles
system.l2.overall_miss_latency::.switch_cpus.data   1002705500                       # number of overall miss cycles
system.l2.overall_miss_latency::total      1578809000                       # number of overall miss cycles
system.l2.demand_accesses::.switch_cpus.inst       210665                       # number of demand (read+write) accesses
system.l2.demand_accesses::.switch_cpus.data        49881                       # number of demand (read+write) accesses
system.l2.demand_accesses::total               260546                       # number of demand (read+write) accesses
system.l2.overall_accesses::.switch_cpus.inst       210665                       # number of overall (read+write) accesses
system.l2.overall_accesses::.switch_cpus.data        49881                       # number of overall (read+write) accesses
system.l2.overall_accesses::total              260546                       # number of overall (read+write) accesses
system.l2.demand_miss_rate::.switch_cpus.inst     0.032782                       # miss rate for demand accesses
system.l2.demand_miss_rate::.switch_cpus.data     0.251418                       # miss rate for demand accesses
system.l2.demand_miss_rate::total            0.074639                       # miss rate for demand accesses
system.l2.overall_miss_rate::.switch_cpus.inst     0.032782                       # miss rate for overall accesses
system.l2.overall_miss_rate::.switch_cpus.data     0.251418                       # miss rate for overall accesses
system.l2.overall_miss_rate::total           0.074639                       # miss rate for overall accesses
system.l2.demand_avg_miss_latency::.switch_cpus.inst 83420.721112                       # average overall miss latency
system.l2.demand_avg_miss_latency::.switch_cpus.data 79954.190256                       # average overall miss latency
system.l2.demand_avg_miss_latency::total 81185.221371                       # average overall miss latency
system.l2.overall_avg_miss_latency::.switch_cpus.inst 83420.721112                       # average overall miss latency
system.l2.overall_avg_miss_latency::.switch_cpus.data 79954.190256                       # average overall miss latency
system.l2.overall_avg_miss_latency::total 81185.221371                       # average overall miss latency
system.l2.blocked_cycles::no_mshrs                  0                       # number of cycles access was blocked
system.l2.blocked_cycles::no_targets                0                       # number of cycles access was blocked
system.l2.blocked::no_mshrs                         0                       # number of cycles access was blocked
system.l2.blocked::no_targets                       0                       # number of cycles access was blocked
system.l2.avg_blocked_cycles::no_mshrs            nan                       # average number of cycles each access was blocked
system.l2.avg_blocked_cycles::no_targets          nan                       # average number of cycles each access was blocked
system.l2.writebacks::.writebacks               10022                       # number of writebacks
system.l2.writebacks::total                     10022                       # number of writebacks
system.l2.demand_mshr_hits::.switch_cpus.inst            1                       # number of demand (read+write) MSHR hits
system.l2.demand_mshr_hits::total                   1                       # number of demand (read+write) MSHR hits
system.l2.overall_mshr_hits::.switch_cpus.inst            1                       # number of overall MSHR hits
system.l2.overall_mshr_hits::total                  1                       # number of overall MSHR hits
system.l2.demand_mshr_misses::.switch_cpus.inst         6905                       # number of demand (read+write) MSHR misses
system.l2.demand_mshr_misses::.switch_cpus.data        12541                       # number of demand (read+write) MSHR misses
system.l2.demand_mshr_misses::total             19446                       # number of demand (read+write) MSHR misses
system.l2.overall_mshr_misses::.switch_cpus.inst         6905                       # number of overall MSHR misses
system.l2.overall_mshr_misses::.switch_cpus.data        12541                       # number of overall MSHR misses
system.l2.overall_mshr_misses::total            19446                       # number of overall MSHR misses
system.l2.demand_mshr_miss_latency::.switch_cpus.inst    506975500                       # number of demand (read+write) MSHR miss cycles
system.l2.demand_mshr_miss_latency::.switch_cpus.data    877295500                       # number of demand (read+write) MSHR miss cycles
system.l2.demand_mshr_miss_latency::total   1384271000                       # number of demand (read+write) MSHR miss cycles
system.l2.overall_mshr_miss_latency::.switch_cpus.inst    506975500                       # number of overall MSHR miss cycles
system.l2.overall_mshr_miss_latency::.switch_cpus.data    877295500                       # number of overall MSHR miss cycles
system.l2.overall_mshr_miss_latency::total   1384271000                       # number of overall MSHR miss cycles
system.l2.demand_mshr_miss_rate::.switch_cpus.inst     0.032777                       # mshr miss rate for demand accesses
system.l2.demand_mshr_miss_rate::.switch_cpus.data     0.251418                       # mshr miss rate for demand accesses
system.l2.demand_mshr_miss_rate::total       0.074636                       # mshr miss rate for demand accesses
system.l2.overall_mshr_miss_rate::.switch_cpus.inst     0.032777                       # mshr miss rate for overall accesses
system.l2.overall_mshr_miss_rate::.switch_cpus.data     0.251418                       # mshr miss rate for overall accesses
system.l2.overall_mshr_miss_rate::total      0.074636                       # mshr miss rate for overall accesses
system.l2.demand_avg_mshr_miss_latency::.switch_cpus.inst 73421.506155                       # average overall mshr miss latency
system.l2.demand_avg_mshr_miss_latency::.switch_cpus.data 69954.190256                       # average overall mshr miss latency
system.l2.demand_avg_mshr_miss_latency::total 71185.385169                       # average overall mshr miss latency
system.l2.overall_avg_mshr_miss_latency::.switch_cpus.inst 73421.506155                       # average overall mshr miss latency
system.l2.overall_avg_mshr_miss_latency::.switch_cpus.data 69954.190256                       # average overall mshr miss latency
system.l2.overall_avg_mshr_miss_latency::total 71185.385169                       # average overall mshr miss latency
system.l2.replacements                          20042                       # number of replacements
system.l2.WritebackDirty_hits::.writebacks        37870                       # number of WritebackDirty hits
system.l2.WritebackDirty_hits::total            37870                       # number of WritebackDirty hits
system.l2.WritebackDirty_accesses::.writebacks        37870                       # number of WritebackDirty accesses(hits+misses)
system.l2.WritebackDirty_accesses::total        37870                       # number of WritebackDirty accesses(hits+misses)
system.l2.WritebackClean_hits::.writebacks       210605                       # number of WritebackClean hits
system.l2.WritebackClean_hits::total           210605                       # number of WritebackClean hits
system.l2.WritebackClean_accesses::.writebacks       210605                       # number of WritebackClean accesses(hits+misses)
system.l2.WritebackClean_accesses::total       210605                       # number of WritebackClean accesses(hits+misses)
system.l2.CleanEvict_mshr_misses::.writebacks          205                       # number of CleanEvict MSHR misses
system.l2.CleanEvict_mshr_misses::total           205                       # number of CleanEvict MSHR misses
system.l2.CleanEvict_mshr_miss_rate::.writebacks          inf                       # mshr miss rate for CleanEvict accesses
system.l2.CleanEvict_mshr_miss_rate::total          inf                       # mshr miss rate for CleanEvict accesses
system.l2.UpgradeReq_hits::.switch_cpus.data          335                       # number of UpgradeReq hits
[...]
system.switch_cpus.commit.committedInstType_0::SimdAddAcc            0      0.00%     79.78% # Class of committed instruction
system.switch_cpus.commit.committedInstType_0::SimdAlu        12526      0.07%     79.85% # Class of committed instruction
system.switch_cpus.commit.committedInstType_0::SimdCmp           14      0.00%     79.85% # Class of committed instruction
system.switch_cpus.commit.committedInstType_0::SimdCvt         6358      0.03%     79.88% # Class of committed instruction
system.switch_cpus.commit.committedInstType_0::SimdMisc        30171      0.16%     80.04% # Class of committed instruction
system.switch_cpus.commit.committedInstType_0::SimdMult            0      0.00%     80.04% # Class of committed instruction
system.switch_cpus.commit.committedInstType_0::SimdMultAcc            0      0.00%     80.04% # Class of committed instruction
system.switch_cpus.commit.committedInstType_0::SimdShift           30      0.00%     80.04% # Class of committed instruction
system.switch_cpus.commit.committedInstType_0::SimdShiftAcc            0      0.00%     80.04% # Class of committed instruction
system.switch_cpus.commit.committedInstType_0::SimdDiv            0      0.00%     80.04% # Class of committed instruction
system.switch_cpus.commit.committedInstType_0::SimdSqrt            0      0.00%     80.04% # Class of committed instruction
system.switch_cpus.commit.committedInstType_0::SimdFloatAdd            3      0.00%     80.04% # Class of committed instruction
system.switch_cpus.commit.committedInstType_0::SimdFloatAlu            0      0.00%     80.04% # Class of committed instruction
system.switch_cpus.commit.committedInstType_0::SimdFloatCmp            0      0.00%     80.04% # Class of committed instruction
system.switch_cpus.commit.committedInstType_0::SimdFloatCvt            4      0.00%     80.04% # Class of committed instruction
system.switch_cpus.commit.committedInstType_0::SimdFloatDiv            1      0.00%     80.04% # Class of committed instruction
system.switch_cpus.commit.committedInstType_0::SimdFloatMisc            0      0.00%     80.04% # Class of committed instruction
system.switch_cpus.commit.committedInstType_0::SimdFloatMult            1      0.00%     80.04% # Class of committed instruction
system.switch_cpus.commit.committedInstType_0::SimdFloatMultAcc            0      0.00%     80.04% # Class of committed instruction
system.switch_cpus.commit.committedInstType_0::SimdFloatSqrt            0      0.00%     80.04% # Class of committed instruction
system.switch_cpus.commit.committedInstType_0::SimdReduceAdd            0      0.00%     80.04% # Class of committed instruction
system.switch_cpus.commit.committedInstType_0::SimdReduceAlu            0      0.00%     80.04% # Class of committed instruction
system.switch_cpus.commit.committedInstType_0::SimdReduceCmp            0      0.00%     80.04% # Class of committed instruction
system.switch_cpus.commit.committedInstType_0::SimdFloatReduceAdd            0      0.00%     80.04% # Class of committed instruction
system.switch_cpus.commit.committedInstType_0::SimdFloatReduceCmp            0      0.00%     80.04% # Class of committed instruction
system.switch_cpus.commit.committedInstType_0::SimdAes            0      0.00%     80.04% # Class of committed instruction
system.switch_cpus.commit.committedInstType_0::SimdAesMix            0      0.00%     80.04% # Class of committed instruction
system.switch_cpus.commit.committedInstType_0::SimdSha1Hash            0      0.00%     80.04% # Class of committed instruction
system.switch_cpus.commit.committedInstType_0::SimdSha1Hash2            0      0.00%     80.04% # Class of committed instruction
system.switch_cpus.commit.committedInstType_0::SimdSha256Hash            0      0.00%     80.04% # Class of committed instruction
system.switch_cpus.commit.committedInstType_0::SimdSha256Hash2            0      0.00%     80.04% # Class of committed instruction
system.switch_cpus.commit.committedInstType_0::SimdShaSigma2            0      0.00%     80.04% # Class of committed instruction
system.switch_cpus.commit.committedInstType_0::SimdShaSigma3            0      0.00%     80.04% # Class of committed instruction
system.switch_cpus.commit.committedInstType_0::SimdPredAlu            0      0.00%     80.04% # Class of committed instruction
system.switch_cpus.commit.committedInstType_0::MemRead      2358859     12.50%     92.54% # Class of committed instruction
system.switch_cpus.commit.committedInstType_0::MemWrite      1283780      6.80%     99.35% # Class of committed instruction
system.switch_cpus.commit.committedInstType_0::FloatMemRead        28534      0.15%     99.50% # Class of committed instruction
system.switch_cpus.commit.committedInstType_0::FloatMemWrite        94674      0.50%    100.00% # Class of committed instruction
system.switch_cpus.commit.committedInstType_0::IprAccess            0      0.00%    100.00% # Class of committed instruction
system.switch_cpus.commit.committedInstType_0::InstPrefetch            0      0.00%    100.00% # Class of committed instruction
system.switch_cpus.commit.committedInstType_0::total     18867927                       # Class of committed instruction
system.switch_cpus.commit.commitEligibleSamples       764765                       # number cycles where commit BW limit reached
system.switch_cpus.decode.idleCycles          6589175                       # Number of cycles decode is idle
system.switch_cpus.decode.blockedCycles       3772508                       # Number of cycles decode is blocked
system.switch_cpus.decode.runCycles           6197877                       # Number of cycles decode is running
system.switch_cpus.decode.unblockCycles        486553                       # Number of cycles decode is unblocking
system.switch_cpus.decode.squashCycles         589792                       # Number of cycles decode is squashing
system.switch_cpus.decode.branchResolved      1875502                       # Number of times decode resolved a  branch
system.switch_cpus.decode.branchMispred         65997                       # Number of times decode detected a branch misprediction
system.switch_cpus.decode.decodedInsts       44487041                       # Number of instructions handled by decode
system.switch_cpus.decode.squashedInsts        262849                       # Number of squashed instructions handled by decode
system.switch_cpus.dtb.rdAccesses             4101696                       # TLB accesses on read requests
system.switch_cpus.dtb.wrAccesses             2230910                       # TLB accesses on write requests
system.switch_cpus.dtb.rdMisses                 24635                       # TLB misses on read requests
system.switch_cpus.dtb.wrMisses                  2523                       # TLB misses on write requests
system.switch_cpus.dtb.walker.power_state.pwrStateResidencyTicks::UNDEFINED  10350158500                       # Cumulative time (in ticks) in various power states
system.switch_cpus.fetch.icacheStallCycles      7528053                       # Number of cycles fetch is stalled on an Icache miss
system.switch_cpus.fetch.insts               25370158                       # Number of instructions fetch has processed
system.switch_cpus.fetch.branches             5486237                       # Number of branches that fetch encountered
system.switch_cpus.fetch.predictedBranches      2280620                       # Number of branches that fetch has predicted taken
system.switch_cpus.fetch.cycles               9410550                       # Number of cycles fetch has run and was not squashing or blocked
system.switch_cpus.fetch.squashCycles         1306648                       # Number of cycles fetch has spent squashing
system.switch_cpus.fetch.miscStallCycles         4315                       # Number of cycles fetch has spent waiting on interrupts,or bad addresses, or out of MSHRs
system.switch_cpus.fetch.pendingTrapStallCycles        38846                       # Number of stall cycles due to pending traps
system.switch_cpus.fetch.icacheWaitRetryStallCycles          822                       # Number of stall cycles due to full MSHR
system.switch_cpus.fetch.cacheLines           3964099                       # Number of cache lines fetched
system.switch_cpus.fetch.icacheSquashes        256292                       # Number of outstanding Icache misses that were squashed
system.switch_cpus.fetch.nisnDist::samples     17635910                       # Number of instructions fetched each cycle (Total)
system.switch_cpus.fetch.nisnDist::mean      2.716902                       # Number of instructions fetched each cycle (Total)
system.switch_cpus.fetch.nisnDist::stdev     3.469823                       # Number of instructions fetched each cycle (Total)
system.switch_cpus.fetch.nisnDist::underflows            0      0.00%      0.00% # Number of instructions fetched each cycle (Total)
system.switch_cpus.fetch.nisnDist::0         10069301     57.10%     57.10% # Number of instructions fetched each cycle (Total)
system.switch_cpus.fetch.nisnDist::1           385906      2.19%     59.28% # Number of instructions fetched each cycle (Total)
system.switch_cpus.fetch.nisnDist::2           382932      2.17%     61.45% # Number of instructions fetched each cycle (Total)
system.switch_cpus.fetch.nisnDist::3           409336      2.32%     63.78% # Number of instructions fetched each cycle (Total)
system.switch_cpus.fetch.nisnDist::4           571434      3.24%     67.02% # Number of instructions fetched each cycle (Total)
system.switch_cpus.fetch.nisnDist::5           622571      3.53%     70.55% # Number of instructions fetched each cycle (Total)
system.switch_cpus.fetch.nisnDist::6           520089      2.95%     73.50% # Number of instructions fetched each cycle (Total)
system.switch_cpus.fetch.nisnDist::7           378591      2.15%     75.64% # Number of instructions fetched each cycle (Total)
system.switch_cpus.fetch.nisnDist::8          4295750     24.36%    100.00% # Number of instructions fetched each cycle (Total)
system.switch_cpus.fetch.nisnDist::overflows            0      0.00%    100.00% # Number of instructions fetched each cycle (Total)
system.switch_cpus.fetch.nisnDist::min_value            0                       # Number of instructions fetched each cycle (Total)
system.switch_cpus.fetch.nisnDist::max_value            8                       # Number of instructions fetched each cycle (Total)
system.switch_cpus.fetch.nisnDist::total     17635910                       # Number of instructions fetched each cycle (Total)
system.switch_cpus.fetch.branchRate          0.295595                       # Number of branch fetches per cycle
system.switch_cpus.fetch.rate                1.366928                       # Number of inst fetches per cycle
system.switch_cpus.itb.rdAccesses                   0                       # TLB accesses on read requests
system.switch_cpus.itb.wrAccesses             3971973                       # TLB accesses on write requests
system.switch_cpus.itb.rdMisses                     0                       # TLB misses on read requests
system.switch_cpus.itb.wrMisses                 43943                       # TLB misses on write requests
system.switch_cpus.itb.walker.power_state.pwrStateResidencyTicks::UNDEFINED  10350158500                       # Cumulative time (in ticks) in various power states
system.switch_cpus.lsq0.forwLoads              228478                       # Number of loads that had data forwarded from stores
system.switch_cpus.lsq0.squashedLoads         2709550                       # Number of loads squashed
system.switch_cpus.lsq0.ignoredResponses         5138                       # Number of memory responses ignored because the instruction is squashed
system.switch_cpus.lsq0.memOrderViolation         4739                       # Number of memory ordering violations
system.switch_cpus.lsq0.squashedStores        1469204                       # Number of stores squashed
system.switch_cpus.lsq0.rescheduledLoads         7820                       # Number of loads that were rescheduled
system.switch_cpus.lsq0.blockedByCache            105                       # Number of times an access to memory failed due to the cache being blocked
system.switch_cpus.power_state.pwrStateResidencyTicks::OFF  10350158500                       # Cumulative time (in ticks) in various power states
system.switch_cpus.rename.squashCycles         589792                       # Number of cycles rename is squashing
system.switch_cpus.rename.idleCycles          6983183                       # Number of cycles rename is idle
system.switch_cpus.rename.blockCycles         2885416                       # Number of cycles rename is blocking
system.switch_cpus.rename.serializeStallCycles            3                       # count of cycles rename stalledfor serializing inst
system.switch_cpus.rename.runCycles           6248082                       # Number of cycles rename is running
system.switch_cpus.rename.unblockCycles        929429                       # Number of cycles rename is unblocking
system.switch_cpus.rename.renamedInsts       42225481                       # Number of instructions processed by rename
system.switch_cpus.rename.ROBFullEvents          7974                       # Number of times rename has blocked due to ROB full
system.switch_cpus.rename.IQFullEvents          48414                       # Number of times rename has blocked due to IQ full
system.switch_cpus.rename.LQFullEvents           5782                       # Number of times rename has blocked due to LQ full
system.switch_cpus.rename.SQFullEvents         836105                       # Number of times rename has blocked due to SQ full
system.switch_cpus.rename.renamedOperands     45764259                       # Number of destination operands rename has renamed
system.switch_cpus.rename.lookups           102661982                       # Number of register rename lookups that rename has made
system.switch_cpus.rename.intLookups         61093745                       # Number of integer rename lookups
system.switch_cpus.rename.fpLookups            464237                       # Number of floating rename lookups
system.switch_cpus.rename.committedMaps      21340992                       # Number of HB maps that are committed
system.switch_cpus.rename.undoneMaps         24423266                       # Number of HB maps that are undone due to squashing
system.switch_cpus.rename.serializing               1                       # count of serializing insts renamed
system.switch_cpus.rename.tempSerializing            2                       # count of temporary serializing insts renamed
system.switch_cpus.rename.skidInsts            562836                       # count of insts added to the skid buffer
system.switch_cpus.rob.reads                 51910518                       # The number of ROB reads
system.switch_cpus.rob.writes                78475365                       # The number of ROB writes
system.switch_cpus.thread_0.numInsts         10000000                       # Number of Instructions committed
system.switch_cpus.thread_0.numOps           18867927                       # Number of Ops committed
system.switch_cpus.thread_0.numMemRefs              0                       # Number of Memory References
system.tol2bus.trans_dist::ReadResp            246058                       # Transaction distribution
system.tol2bus.trans_dist::WritebackDirty        47892                       # Transaction distribution
system.tol2bus.trans_dist::WritebackClean       210788                       # Transaction distribution
system.tol2bus.trans_dist::CleanEvict           22031                       # Transaction distribution
system.tol2bus.trans_dist::UpgradeReq             344                       # Transaction distribution
system.tol2bus.trans_dist::UpgradeResp            344                       # Transaction distribution
system.tol2bus.trans_dist::ReadExReq            14877                       # Transaction distribution
system.tol2bus.trans_dist::ReadExResp           14877                       # Transaction distribution
system.tol2bus.trans_dist::ReadCleanReq        211055                       # Transaction distribution
system.tol2bus.trans_dist::ReadSharedReq        35004                       # Transaction distribution
system.tol2bus.pkt_count_system.cpu.icache.mem_side_port::system.l2.cpu_side_port       632507                       # Packet count per connected requestor and responder (bytes)
system.tol2bus.pkt_count_system.cpu.dcache.mem_side_port::system.l2.cpu_side_port       150331                       # Packet count per connected requestor and responder (bytes)
system.tol2bus.pkt_count::total                782838                       # Packet count per connected requestor and responder (bytes)
system.tol2bus.pkt_size_system.cpu.icache.mem_side_port::system.l2.cpu_side_port     26972928                       # Cumulative packet size per connected requestor and responder (bytes)
system.tol2bus.pkt_size_system.cpu.dcache.mem_side_port::system.l2.cpu_side_port      5616064                       # Cumulative packet size per connected requestor and responder (bytes)
system.tol2bus.pkt_size::total               32588992                       # Cumulative packet size per connected requestor and responder (bytes)
system.tol2bus.snoops                           20432                       # Total snoops (count)
system.tol2bus.snoopTraffic                    666368                       # Total snoop traffic (bytes)
system.tol2bus.snoop_fanout::samples           281322                       # Request fanout histogram
system.tol2bus.snoop_fanout::mean            0.007454                       # Request fanout histogram
system.tol2bus.snoop_fanout::stdev           0.086345                       # Request fanout histogram
system.tol2bus.snoop_fanout::underflows             0      0.00%      0.00% # Request fanout histogram
system.tol2bus.snoop_fanout::0                 279233     99.26%     99.26% # Request fanout histogram
system.tol2bus.snoop_fanout::1                   2081      0.74%    100.00% # Request fanout histogram
system.tol2bus.snoop_fanout::2                      8      0.00%    100.00% # Request fanout histogram
system.tol2bus.snoop_fanout::3                      0      0.00%    100.00% # Request fanout histogram
system.tol2bus.snoop_fanout::4                      0      0.00%    100.00% # Request fanout histogram
system.tol2bus.snoop_fanout::overflows              0      0.00%    100.00% # Request fanout histogram
system.tol2bus.snoop_fanout::min_value              0                       # Request fanout histogram
system.tol2bus.snoop_fanout::max_value              2                       # Request fanout histogram
system.tol2bus.snoop_fanout::total             281322                       # Request fanout histogram
system.tol2bus.power_state.pwrStateResidencyTicks::UNDEFINED  10350158500                       # Cumulative time (in ticks) in various power states
system.tol2bus.reqLayer0.occupancy          509632500                       # Layer occupancy (ticks)
system.tol2bus.reqLayer0.utilization              5.5                       # Layer utilization (%)
system.tol2bus.respLayer0.occupancy         316603954                       # Layer occupancy (ticks)
system.tol2bus.respLayer0.utilization             3.4                       # Layer utilization (%)
system.tol2bus.respLayer1.occupancy          75013460                       # Layer occupancy (ticks)
system.tol2bus.respLayer1.utilization             0.8                       # Layer utilization (%)
system.voltage_domain.voltage                       1                       # Voltage in Volts

---------- End Simulation Statistics   ----------
