
---------- Begin Simulation Statistics ----------
final_tick                                 6086500000                       # Number of ticks from beginning of simulation (restored from checkpoints and never reset)
host_inst_rate                                 162605                       # Simulator instruction rate (inst/s)
host_mem_usage                                8817180                       # Number of bytes of host memory used
host_op_rate                                   304187                       # Simulator op (including micro ops) rate (op/s)
host_seconds                                    67.65                       # Real time elapsed on the host
host_tick_rate                               74445501                       # Simulator tick rate (ticks/s)
sim_freq                                 1000000000000                       # Frequency of simulated ticks
sim_insts                                    11000001                       # Number of instructions simulated
sim_ops                                      20577856                       # Number of ops (including micro ops) simulated
sim_seconds                                  0.005036                       # Number of seconds simulated
sim_ticks                                  5036137000                       # Number of ticks simulated
system.cpu.committedInsts                           0                       # Number of instructions committed
system.cpu.committedOps                             0                       # Number of ops (including micro ops) committed
system.cpu.idle_fraction                            0                       # Percentage of idle cycles
system.cpu.not_idle_fraction                        1                       # Percentage of non-idle cycles
system.cpu.numCycles                                0                       # number of cpu cycles simulated
system.cpu.numWorkItemsCompleted                    0                       # number of work items this cpu completed
system.cpu.numWorkItemsStarted                      0                       # number of work items this cpu started
system.cpu.num_busy_cycles                          0                       # Number of busy cycles
system.cpu.num_conditional_control_insts            0                       # number of instructions that are conditional controls
system.cpu.num_fp_alu_accesses                      0                       # Number of float alu accesses
system.cpu.num_fp_insts                             0                       # number of float instructions
system.cpu.num_fp_register_reads                    0                       # number of times the floating registers were read
system.cpu.num_fp_register_writes                   0                       # number of times the floating registers were written
system.cpu.num_func_calls                           0                       # number of times a function call or return occured
system.cpu.num_idle_cycles                          0                       # Number of idle cycles
system.cpu.num_int_alu_accesses                     0                       # Number of integer alu accesses
system.cpu.num_int_insts                            0                       # number of integer instructions
system.cpu.num_int_register_reads                   0                       # number of times the integer registers were read
system.cpu.num_int_register_writes                  0                       # number of times the integer registers were written
system.cpu.num_load_insts                           0                       # Number of load instructions
system.cpu.num_mem_refs                             0                       # number of memory refs
system.cpu.num_store_insts                          0                       # Number of store instructions
system.cpu.num_vec_alu_accesses                     0                       # Number of vector alu accesses
system.cpu.num_vec_insts                            0                       # number of vector instructions
system.cpu.num_vec_register_reads                   0                       # number of times the vector registers were read
system.cpu.num_vec_register_writes                  0                       # number of times the vector registers were written
system.cpu.op_class::No_OpClass                     0                       # Class of executed instruction
system.cpu.op_class::IntAlu                         0                       # Class of executed instruction
system.cpu.op_class::IntMult                        0                       # Class of executed instruction
system.cpu.op_class::IntDiv                         0                       # Class of executed instruction
system.cpu.op_class::FloatAdd                       0                       # Class of executed instruction
system.cpu.op_class::FloatCmp                       0                       # Class of executed instruction
system.cpu.op_class::FloatCvt                       0                       # Class of executed instruction
system.cpu.op_class::FloatMult                      0                       # Class of executed instruction
system.cpu.op_class::FloatMultAcc                   0                       # Class of executed instruction
system.cpu.op_class::FloatDiv                       0                       # Class of executed instruction
system.cpu.op_class::FloatMisc                      0                       # Class of executed instruction
system.cpu.op_class::FloatSqrt                      0                       # Class of executed instruction
system.cpu.op_class::SimdAdd                        0                       # Class of executed instruction
system.cpu.op_class::SimdAddAcc                     0                       # Class of executed instruction
system.cpu.op_class::SimdAlu                        0                       # Class of executed instruction
system.cpu.op_class::SimdCmp                        0                       # Class of executed instruction
system.cpu.op_class::SimdCvt                        0                       # Class of executed instruction
system.cpu.op_class::SimdMisc                       0                       # Class of executed instruction
system.cpu.op_class::SimdMult                       0                       # Class of executed instruction
system.cpu.op_class::SimdMultAcc                    0                       # Class of executed instruction
system.cpu.op_class::SimdShift                      0                       # Class of executed instruction
system.cpu.op_class::SimdShiftAcc                   0                       # Class of executed instruction
system.cpu.op_class::SimdDiv                        0                       # Class of executed instruction
system.cpu.op_class::SimdSqrt                       0                       # Class of executed instruction
system.cpu.op_class::SimdFloatAdd                   0                       # Class of executed instruction
system.cpu.op_class::SimdFloatAlu                   0                       # Class of executed instruction
system.cpu.op_class::SimdFloatCmp                   0                       # Class of executed instruction
system.cpu.op_class::SimdFloatCvt                   0                       # Class of executed instruction
system.cpu.op_class::SimdFloatDiv                   0                       # Class of executed instruction
system.cpu.op_class::SimdFloatMisc                  0                       # Class of executed instruction
system.cpu.op_class::SimdFloatMult                  0                       # Class of executed instruction
system.cpu.op_class::SimdFloatMultAcc               0                       # Class of executed instruction
system.cpu.op_class::SimdFloatSqrt                  0                       # Class of executed instruction
system.cpu.op_class::SimdReduceAdd                  0                       # Class of executed instruction
system.cpu.op_class::SimdReduceAlu                  0                       # Class of executed instruction
system.cpu.op_class::SimdReduceCmp                  0                       # Class of executed instruction
system.cpu.op_class::SimdFloatReduceAdd             0                       # Class of executed instruction
system.cpu.op_class::SimdFloatReduceCmp             0                       # Class of executed instruction
system.cpu.op_class::SimdAes                        0                       # Class of executed instruction
system.cpu.op_class::SimdAesMix                     0                       # Class of executed instruction
system.cpu.op_class::SimdSha1Hash                   0                       # Class of executed instruction
system.cpu.op_class::SimdSha1Hash2                  0                       # Class of executed instruction
system.cpu.op_class::SimdSha256Hash                 0                       # Class of executed instruction
system.cpu.op_class::SimdSha256Hash2                0                       # Class of executed instruction
system.cpu.op_class::SimdShaSigma2                  0                       # Class of executed instruction
system.cpu.op_class::SimdShaSigma3                  0                       # Class of executed instruction
system.cpu.op_class::SimdPredAlu                    0                       # Class of executed instruction
system.cpu.op_class::MemRead                        0                       # Class of executed instruction
system.cpu.op_class::MemWrite                       0                       # Class of executed instruction
system.cpu.op_class::FloatMemRead                   0                       # Class of executed instruction
system.cpu.op_class::FloatMemWrite                  0                       # Class of executed instruction
system.cpu.op_class::IprAccess                      0                       # Class of executed instruction
system.cpu.op_class::InstPrefetch                   0                       # Class of executed instruction
system.cpu.op_class::total                          0                       # Class of executed instruction
system.cpu.workload.numSyscalls                    26                       # Number of system calls
system.membus.snoop_filter.hit_multi_requests            0                       # Number of requests hitting in the snoop filter with multiple (>1) holders of the requested data.
system.membus.snoop_filter.hit_multi_snoops            0                       # Number of snoops hitting in the snoop filter with multiple (>1) holders of the requested data.
system.membus.snoop_filter.hit_single_requests        33387                       # Number of requests hitting in the snoop filter with a single holder of the requested data.
system.membus.snoop_filter.hit_single_snoops            0                       # Number of snoops hitting in the snoop filter with a single holder of the requested data.
system.membus.snoop_filter.tot_requests         68750                       # Total number of requests made to the snoop filter.
system.membus.snoop_filter.tot_snoops               0                       # Total number of snoops made to the snoop filter.
system.switch_cpus.cc_regfile_reads          11395130                       # number of cc regfile reads
system.switch_cpus.cc_regfile_writes          7039587                       # number of cc regfile writes
system.switch_cpus.committedInsts            10000000                       # Number of Instructions Simulated
system.switch_cpus.committedOps              18817440                       # Number of Ops (including micro ops) Simulated
system.switch_cpus.cpi                       1.007227                       # CPI: Cycles Per Instruction
system.switch_cpus.cpi_total                 1.007227                       # CPI: Total CPI of All Threads
system.switch_cpus.fp_regfile_reads            198998                       # number of floating regfile reads
system.switch_cpus.fp_regfile_writes           106804                       # number of floating regfile writes
system.switch_cpus.idleCycles                  494104                       # Total number of cycles that the CPU has spent unscheduled due to idling
system.switch_cpus.iew.branchMispredicts        99833                       # Number of branch mispredicts detected at execute
system.switch_cpus.iew.exec_branches          2250441                       # Number of branches executed
system.switch_cpus.iew.exec_nop                     0                       # number of nop insts executed
system.switch_cpus.iew.exec_rate             2.065148                       # Inst execution rate
system.switch_cpus.iew.exec_refs              4221905                       # number of memory reference insts executed
system.switch_cpus.iew.exec_stores            1298820                       # Number of stores executed
system.switch_cpus.iew.exec_swp                     0                       # number of swp insts executed
system.switch_cpus.iew.iewBlockCycles         1186631                       # Number of cycles IEW is blocking
system.switch_cpus.iew.iewDispLoadInsts       3083082                       # Number of dispatched load instructions
system.switch_cpus.iew.iewDispNonSpecInsts          758                       # Number of dispatched non-speculative instructions
system.switch_cpus.iew.iewDispSquashedInsts         6100                       # Number of squashed instructions skipped by dispatch
system.switch_cpus.iew.iewDispStoreInsts      1352045                       # Number of dispatched store instructions
system.switch_cpus.iew.iewDispatchedInsts     22063423                       # Number of instructions dispatched to IQ
system.switch_cpus.iew.iewExecLoadInsts       2923085                       # Number of load instructions executed
system.switch_cpus.iew.iewExecSquashedInsts       148434                       # Number of squashed instructions skipped in execute
system.switch_cpus.iew.iewExecutedInsts      20800732                       # Number of executed instructions
system.switch_cpus.iew.iewIQFullEvents          10612                       # Number of times the IQ has become full, causing a stall
system.switch_cpus.iew.iewIdleCycles                0                       # Number of cycles IEW is idle
system.switch_cpus.iew.iewLSQFullEvents        179777                       # Number of times the LSQ has become full, causing a stall
system.switch_cpus.iew.iewSquashCycles          77971                       # Number of cycles IEW is squashing
system.switch_cpus.iew.iewUnblockCycles        195475                       # Number of cycles IEW is unblocking
system.switch_cpus.iew.memOrderViolationEvents          589                       # Number of memory order violations
system.switch_cpus.iew.predictedNotTakenIncorrect        59036                       # Number of branches that were predicted not taken incorrectly
system.switch_cpus.iew.predictedTakenIncorrect        40797                       # Number of branches that were predicted taken incorrectly
system.switch_cpus.iew.wb_consumers          25398491                       # num instructions consuming a value
system.switch_cpus.iew.wb_count              20706954                       # cumulative count of insts written-back
system.switch_cpus.iew.wb_fanout             0.593938                       # average fanout of values written-back
system.switch_cpus.iew.wb_producers          15085125                       # num instructions producing a value
system.switch_cpus.iew.wb_rate               2.055837                       # insts written-back per cycle
system.switch_cpus.iew.wb_sent               20748421                       # cumulative count of insts sent to commit
system.switch_cpus.int_regfile_reads         31970596                       # number of integer regfile reads
system.switch_cpus.int_regfile_writes        17119056                       # number of integer regfile writes
system.switch_cpus.ipc                       0.992824                       # IPC: Instructions Per Cycle
system.switch_cpus.ipc_total                 0.992824                       # IPC: Total IPC of All Threads
system.switch_cpus.iq.FU_type_0::No_OpClass       343406      1.64%      1.64% # Type of FU issued
system.switch_cpus.iq.FU_type_0::IntAlu      16050187     76.61%     78.25% # Type of FU issued
system.switch_cpus.iq.FU_type_0::IntMult        66297      0.32%     78.57% # Type of FU issued
system.switch_cpus.iq.FU_type_0::IntDiv        141687      0.68%     79.25% # Type of FU issued
system.switch_cpus.iq.FU_type_0::FloatAdd         8983      0.04%     79.29% # Type of FU issued
system.switch_cpus.iq.FU_type_0::FloatCmp            0      0.00%     79.29% # Type of FU issued
system.switch_cpus.iq.FU_type_0::FloatCvt         1172      0.01%     79.30% # Type of FU issued
system.switch_cpus.iq.FU_type_0::FloatMult            3      0.00%     79.30% # Type of FU issued
system.switch_cpus.iq.FU_type_0::FloatMultAcc            0      0.00%     79.30% # Type of FU issued
system.switch_cpus.iq.FU_type_0::FloatDiv            0      0.00%     79.30% # Type of FU issued
system.switch_cpus.iq.FU_type_0::FloatMisc            0      0.00%     79.30% # Type of FU issued
system.switch_cpus.iq.FU_type_0::FloatSqrt            0      0.00%     79.30% # Type of FU issued
system.switch_cpus.iq.FU_type_0::SimdAdd         4548      0.02%     79.32% # Type of FU issued
system.switch_cpus.iq.FU_type_0::SimdAddAcc            0      0.00%     79.32% # Type of FU issued
system.switch_cpus.iq.FU_type_0::SimdAlu        24327      0.12%     79.43% # Type of FU issued
system.switch_cpus.iq.FU_type_0::SimdCmp           85      0.00%     79.43% # Type of FU issued
system.switch_cpus.iq.FU_type_0::SimdCvt        11987      0.06%     79.49% # Type of FU issued
system.switch_cpus.iq.FU_type_0::SimdMisc        16624      0.08%     79.57% # Type of FU issued
system.switch_cpus.iq.FU_type_0::SimdMult            0      0.00%     79.57% # Type of FU issued
system.switch_cpus.iq.FU_type_0::SimdMultAcc            0      0.00%     79.57% # Type of FU issued
system.switch_cpus.iq.FU_type_0::SimdShift         2705      0.01%     79.58% # Type of FU issued
system.switch_cpus.iq.FU_type_0::SimdShiftAcc            0      0.00%     79.58% # Type of FU issued
system.switch_cpus.iq.FU_type_0::SimdDiv            0      0.00%     79.58% # Type of FU issued
system.switch_cpus.iq.FU_type_0::SimdSqrt            0      0.00%     79.58% # Type of FU issued
system.switch_cpus.iq.FU_type_0::SimdFloatAdd            6      0.00%     79.58% # Type of FU issued
system.switch_cpus.iq.FU_type_0::SimdFloatAlu            0      0.00%     79.58% # Type of FU issued
system.switch_cpus.iq.FU_type_0::SimdFloatCmp            0      0.00%     79.58% # Type of FU issued
system.switch_cpus.iq.FU_type_0::SimdFloatCvt          330      0.00%     79.58% # Type of FU issued
system.switch_cpus.iq.FU_type_0::SimdFloatDiv            1      0.00%     79.58% # Type of FU issued
system.switch_cpus.iq.FU_type_0::SimdFloatMisc            0      0.00%     79.58% # Type of FU issued
system.switch_cpus.iq.FU_type_0::SimdFloatMult          119      0.00%     79.59% # Type of FU issued
system.switch_cpus.iq.FU_type_0::SimdFloatMultAcc            0      0.00%     79.59% # Type of FU issued
system.switch_cpus.iq.FU_type_0::SimdFloatSqrt            1      0.00%     79.59% # Type of FU issued
system.switch_cpus.iq.FU_type_0::SimdReduceAdd            0      0.00%     79.59% # Type of FU issued
system.switch_cpus.iq.FU_type_0::SimdReduceAlu            0      0.00%     79.59% # Type of FU issued
system.switch_cpus.iq.FU_type_0::SimdReduceCmp            0      0.00%     79.59% # Type of FU issued
system.switch_cpus.iq.FU_type_0::SimdFloatReduceAdd            0      0.00%     79.59% # Type of FU issued
system.switch_cpus.iq.FU_type_0::SimdFloatReduceCmp            0      0.00%     79.59% # Type of FU issued
system.switch_cpus.iq.FU_type_0::SimdAes            0      0.00%     79.59% # Type of FU issued
system.switch_cpus.iq.FU_type_0::SimdAesMix            0      0.00%     79.59% # Type of FU issued
system.switch_cpus.iq.FU_type_0::SimdSha1Hash            0      0.00%     79.59% # Type of FU issued
system.switch_cpus.iq.FU_type_0::SimdSha1Hash2            0      0.00%     79.59% # Type of FU issued
system.switch_cpus.iq.FU_type_0::SimdSha256Hash            0      0.00%     79.59% # Type of FU issued
system.switch_cpus.iq.FU_type_0::SimdSha256Hash2            0      0.00%     79.59% # Type of FU issued
system.switch_cpus.iq.FU_type_0::SimdShaSigma2            0      0.00%     79.59% # Type of FU issued
system.switch_cpus.iq.FU_type_0::SimdShaSigma3            0      0.00%     79.59% # Type of FU issued
system.switch_cpus.iq.FU_type_0::SimdPredAlu            0      0.00%     79.59% # Type of FU issued
system.switch_cpus.iq.FU_type_0::MemRead      2920246     13.94%     93.53% # Type of FU issued
system.switch_cpus.iq.FU_type_0::MemWrite      1244383      5.94%     99.47% # Type of FU issued
system.switch_cpus.iq.FU_type_0::FloatMemRead        44471      0.21%     99.68% # Type of FU issued
system.switch_cpus.iq.FU_type_0::FloatMemWrite        67599      0.32%    100.00% # Type of FU issued
system.switch_cpus.iq.FU_type_0::IprAccess            0      0.00%    100.00% # Type of FU issued
system.switch_cpus.iq.FU_type_0::InstPrefetch            0      0.00%    100.00% # Type of FU issued
system.switch_cpus.iq.FU_type_0::total       20949167                       # Type of FU issued
system.switch_cpus.iq.fp_alu_accesses          195138                       # Number of floating point alu accesses
system.switch_cpus.iq.fp_inst_queue_reads       383204                       # Number of floating instruction queue reads
system.switch_cpus.iq.fp_inst_queue_wakeup_accesses       177438                       # Number of floating instruction queue wakeup accesses
system.switch_cpus.iq.fp_inst_queue_writes       249280                       # Number of floating instruction queue writes
system.switch_cpus.iq.fu_busy_cnt              344556                       # FU busy when requested
system.switch_cpus.iq.fu_busy_rate           0.016447                       # FU busy rate (busy events/executed inst)
system.switch_cpus.iq.fu_full::No_OpClass            0      0.00%      0.00% # attempts to use FU when none available
system.switch_cpus.iq.fu_full::IntAlu          296429     86.03%     86.03% # attempts to use FU when none available
system.switch_cpus.iq.fu_full::IntMult              0      0.00%     86.03% # attempts to use FU when none available
system.switch_cpus.iq.fu_full::IntDiv               0      0.00%     86.03% # attempts to use FU when none available
system.switch_cpus.iq.fu_full::FloatAdd             0      0.00%     86.03% # attempts to use FU when none available
system.switch_cpus.iq.fu_full::FloatCmp             0      0.00%     86.03% # attempts to use FU when none available
system.switch_cpus.iq.fu_full::FloatCvt             0      0.00%     86.03% # attempts to use FU when none available
system.switch_cpus.iq.fu_full::FloatMult            0      0.00%     86.03% # attempts to use FU when none available
system.switch_cpus.iq.fu_full::FloatMultAcc            0      0.00%     86.03% # attempts to use FU when none available
system.switch_cpus.iq.fu_full::FloatDiv             0      0.00%     86.03% # attempts to use FU when none available
system.switch_cpus.iq.fu_full::FloatMisc            0      0.00%     86.03% # attempts to use FU when none available
system.switch_cpus.iq.fu_full::FloatSqrt            0      0.00%     86.03% # attempts to use FU when none available
system.switch_cpus.iq.fu_full::SimdAdd              0      0.00%     86.03% # attempts to use FU when none available
system.switch_cpus.iq.fu_full::SimdAddAcc            0      0.00%     86.03% # attempts to use FU when none available
system.switch_cpus.iq.fu_full::SimdAlu            529      0.15%     86.19% # attempts to use FU when none available
system.switch_cpus.iq.fu_full::SimdCmp              0      0.00%     86.19% # attempts to use FU when none available
system.switch_cpus.iq.fu_full::SimdCvt            509      0.15%     86.33% # attempts to use FU when none available
system.switch_cpus.iq.fu_full::SimdMisc           371      0.11%     86.44% # attempts to use FU when none available
system.switch_cpus.iq.fu_full::SimdMult             0      0.00%     86.44% # attempts to use FU when none available
system.switch_cpus.iq.fu_full::SimdMultAcc            0      0.00%     86.44% # attempts to use FU when none available
system.switch_cpus.iq.fu_full::SimdShift           55      0.02%     86.46% # attempts to use FU when none available
system.switch_cpus.iq.fu_full::SimdShiftAcc            0      0.00%     86.46% # attempts to use FU when none available
system.switch_cpus.iq.fu_full::SimdDiv              0      0.00%     86.46% # attempts to use FU when none available
system.switch_cpus.iq.fu_full::SimdSqrt             0      0.00%     86.46% # attempts to use FU when none available
system.switch_cpus.iq.fu_full::SimdFloatAdd            0      0.00%     86.46% # attempts to use FU when none available
system.switch_cpus.iq.fu_full::SimdFloatAlu            0      0.00%     86.46% # attempts to use FU when none available
system.switch_cpus.iq.fu_full::SimdFloatCmp            0      0.00%     86.46% # attempts to use FU when none available
system.switch_cpus.iq.fu_full::SimdFloatCvt            0      0.00%     86.46% # attempts to use FU when none available
system.switch_cpus.iq.fu_full::SimdFloatDiv            0      0.00%     86.46% # attempts to use FU when none available
system.switch_cpus.iq.fu_full::SimdFloatMisc            0      0.00%     86.46% # attempts to use FU when none available
system.switch_cpus.iq.fu_full::SimdFloatMult            0      0.00%     86.46% # attempts to use FU when none available
system.switch_cpus.iq.fu_full::SimdFloatMultAcc            0      0.00%     86.46% # attempts to use FU when none available
system.switch_cpus.iq.fu_full::SimdFloatSqrt            0      0.00%     86.46% # attempts to use FU when none available
system.switch_cpus.iq.fu_full::SimdReduceAdd            0      0.00%     86.46% # attempts to use FU when none available
system.switch_cpus.iq.fu_full::SimdReduceAlu            0      0.00%     86.46% # attempts to use FU when none available
system.switch_cpus.iq.fu_full::SimdReduceCmp            0      0.00%     86.46% # attempts to use FU when none available
system.switch_cpus.iq.fu_full::SimdFloatReduceAdd            0      0.00%     86.46% # attempts to use FU when none available
system.switch_cpus.iq.fu_full::SimdFloatReduceCmp            0      0.00%     86.46% # attempts to use FU when none available
system.switch_cpus.iq.fu_full::SimdAes              0      0.00%     86.46% # attempts to use FU when none available
system.switch_cpus.iq.fu_full::SimdAesMix            0      0.00%     86.46% # attempts to use FU when none available
system.switch_cpus.iq.fu_full::SimdSha1Hash            0      0.00%     86.46% # attempts to use FU when none available
system.switch_cpus.iq.fu_full::SimdSha1Hash2            0      0.00%     86.46% # attempts to use FU when none available
system.switch_cpus.iq.fu_full::SimdSha256Hash            0      0.00%     86.46% # attempts to use FU when none available
system.switch_cpus.iq.fu_full::SimdSha256Hash2            0      0.00%     86.46% # attempts to use FU when none available
system.switch_cpus.iq.fu_full::SimdShaSigma2            0      0.00%     86.46% # attempts to use FU when none available
system.switch_cpus.iq.fu_full::SimdShaSigma3            0      0.00%     86.46% # attempts to use FU when none available
system.switch_cpus.iq.fu_full::SimdPredAlu            0      0.00%     86.46% # attempts to use FU when none available
system.switch_cpus.iq.fu_full::MemRead          27698      8.04%     94.50% # attempts to use FU when none available
system.switch_cpus.iq.fu_full::MemWrite         12606      3.66%     98.15% # attempts to use FU when none available
system.switch_cpus.iq.fu_full::FloatMemRead         3007      0.87%     99.03% # attempts to use FU when none available
system.switch_cpus.iq.fu_full::FloatMemWrite         3352      0.97%    100.00% # attempts to use FU when none available
system.switch_cpus.iq.fu_full::IprAccess            0      0.00%    100.00% # attempts to use FU when none available
system.switch_cpus.iq.fu_full::InstPrefetch            0      0.00%    100.00% # attempts to use FU when none available
system.switch_cpus.iq.int_alu_accesses       20755179                       # Number of integer alu accesses
system.switch_cpus.iq.int_inst_queue_reads     51491335                       # Number of integer instruction queue reads
system.switch_cpus.iq.int_inst_queue_wakeup_accesses     20529516                       # Number of integer instruction queue wakeup accesses
system.switch_cpus.iq.int_inst_queue_writes     25060674                       # Number of integer instruction queue writes
system.switch_cpus.iq.iqInstsAdded           22062388                       # Number of instructions added to the IQ (excludes non-spec)
system.switch_cpus.iq.iqInstsIssued          20949167                       # Number of instructions issued
system.switch_cpus.iq.iqNonSpecInstsAdded         1035                       # Number of non-speculative instructions added to the IQ
system.switch_cpus.iq.iqSquashedInstsExamined      3245960                       # Number of squashed instructions iterated over during squash; mainly for profiling
system.switch_cpus.iq.iqSquashedInstsIssued        53480                       # Number of squashed instructions issued
system.switch_cpus.iq.iqSquashedNonSpecRemoved          330                       # Number of squashed non-spec instructions that were removed
system.switch_cpus.iq.iqSquashedOperandsExamined      4650801                       # Number of squashed operands that are examined and possibly removed from graph
system.switch_cpus.iq.issued_per_cycle::samples      9578170                       # Number of insts issued each cycle
system.switch_cpus.iq.issued_per_cycle::mean     2.187178                       # Number of insts issued each cycle
system.switch_cpus.iq.issued_per_cycle::stdev     2.419849                       # Number of insts issued each cycle
system.switch_cpus.iq.issued_per_cycle::underflows            0      0.00%      0.00% # Number of insts issued each cycle
system.switch_cpus.iq.issued_per_cycle::0      4129530     43.11%     43.11% # Number of insts issued each cycle
system.switch_cpus.iq.issued_per_cycle::1       776126      8.10%     51.22% # Number of insts issued each cycle
system.switch_cpus.iq.issued_per_cycle::2       846167      8.83%     60.05% # Number of insts issued each cycle
system.switch_cpus.iq.issued_per_cycle::3       930323      9.71%     69.76% # Number of insts issued each cycle
system.switch_cpus.iq.issued_per_cycle::4       870362      9.09%     78.85% # Number of insts issued each cycle
system.switch_cpus.iq.issued_per_cycle::5       731057      7.63%     86.48% # Number of insts issued each cycle
system.switch_cpus.iq.issued_per_cycle::6       686532      7.17%     93.65% # Number of insts issued each cycle
system.switch_cpus.iq.issued_per_cycle::7       430771      4.50%     98.15% # Number of insts issued each cycle
system.switch_cpus.iq.issued_per_cycle::8       177302      1.85%    100.00% # Number of insts issued each cycle
system.switch_cpus.iq.issued_per_cycle::overflows            0      0.00%    100.00% # Number of insts issued each cycle
system.switch_cpus.iq.issued_per_cycle::min_value            0                       # Number of insts issued each cycle
system.switch_cpus.iq.issued_per_cycle::max_value            8                       # Number of insts issued each cycle
system.switch_cpus.iq.issued_per_cycle::total      9578170                       # Number of insts issued each cycle
system.switch_cpus.iq.rate                   2.079885                       # Inst issue rate
system.switch_cpus.iq.vec_alu_accesses              0                       # Number of vector alu accesses
system.switch_cpus.iq.vec_inst_queue_reads            0                       # Number of vector instruction queue reads
system.switch_cpus.iq.vec_inst_queue_wakeup_accesses            0                       # Number of vector instruction queue wakeup accesses
system.switch_cpus.iq.vec_inst_queue_writes            0                       # Number of vector instruction queue writes
system.switch_cpus.memDep0.conflictingLoads        53171                       # Number of conflicting loads.
system.switch_cpus.memDep0.conflictingStores        61463                       # Number of conflicting stores.
system.switch_cpus.memDep0.insertedLoads      3083082                       # Number of loads inserted to the mem dependence unit.
system.switch_cpus.memDep0.insertedStores      1352045                       # Number of stores inserted to the mem dependence unit.
system.switch_cpus.misc_regfile_reads         8785241                       # number of misc regfile reads
system.switch_cpus.misc_regfile_writes            639                       # number of misc regfile writes
system.switch_cpus.numCycles                 10072274                       # number of cpu cycles simulated
system.switch_cpus.numWorkItemsCompleted            0                       # number of work items this cpu completed
system.switch_cpus.numWorkItemsStarted              0                       # number of work items this cpu started
system.switch_cpus.timesIdled                   19860                       # Number of times that the entire CPU went into an idle state and unscheduled itself
system.tol2bus.snoop_filter.hit_multi_requests          683                       # Number of requests hitting in the snoop filter with multiple (>1) holders of the requested data.
system.tol2bus.snoop_filter.hit_multi_snoops            6                       # Number of snoops hitting in the snoop filter with multiple (>1) holders of the requested data.
system.tol2bus.snoop_filter.hit_single_requests       102948                       # Number of requests hitting in the snoop filter with a single holder of the requested data.
system.tol2bus.snoop_filter.hit_single_snoops         1928                       # Number of snoops hitting in the snoop filter with a single holder of the requested data.
system.tol2bus.snoop_filter.tot_requests       206416                       # Total number of requests made to the snoop filter.
system.tol2bus.snoop_filter.tot_snoops           1934                       # Total number of snoops made to the snoop filter.
system.clk_domain.clock                          1000                       # Clock period in ticks
system.cpu.dcache.demand_hits::.switch_cpus.data      3650945                       # number of demand (read+write) hits
system.cpu.dcache.demand_hits::total          3650945                       # number of demand (read+write) hits
system.cpu.dcache.overall_hits::.switch_cpus.data      3651135                       # number of overall hits
system.cpu.dcache.overall_hits::total         3651135                       # number of overall hits
system.cpu.dcache.demand_misses::.switch_cpus.data       122894                       # number of demand (read+write) misses
system.cpu.dcache.demand_misses::total         122894                       # number of demand (read+write) misses
system.cpu.dcache.overall_misses::.switch_cpus.data       122900                       # number of overall misses
system.cpu.dcache.overall_misses::total        122900                       # number of overall misses
system.cpu.dcache.demand_miss_latency::.switch_cpus.data   7283388497                       # number of demand (read+write) miss cycles
system.cpu.dcache.demand_miss_latency::total   7283388497                       # number of demand (read+write) miss cycles
system.cpu.dcache.overall_miss_latency::.switch_cpus.data   7283388497                       # number of overall miss cycles
system.cpu.dcache.overall_miss_latency::total   7283388497                       # number of overall miss cycles
system.cpu.dcache.demand_accesses::.switch_cpus.data      3773839                       # number of demand (read+write) accesses
system.cpu.dcache.demand_accesses::total      3773839                       # number of demand (read+write) accesses
system.cpu.dcache.overall_accesses::.switch_cpus.data      3774035                       # number of overall (read+write) accesses
system.cpu.dcache.overall_accesses::total      3774035                       # number of overall (read+write) accesses
system.cpu.dcache.demand_miss_rate::.switch_cpus.data     0.032565                       # miss rate for demand accesses
system.cpu.dcache.demand_miss_rate::total     0.032565                       # miss rate for demand accesses
system.cpu.dcache.overall_miss_rate::.switch_cpus.data     0.032565                       # miss rate for overall accesses
system.cpu.dcache.overall_miss_rate::total     0.032565                       # miss rate for overall accesses
system.cpu.dcache.demand_avg_miss_latency::.switch_cpus.data 59265.615059                       # average overall miss latency
system.cpu.dcache.demand_avg_miss_latency::total 59265.615059                       # average overall miss latency
system.cpu.dcache.overall_avg_miss_latency::.switch_cpus.data 59262.721701                       # average overall miss latency
system.cpu.dcache.overall_avg_miss_latency::total 59262.721701                       # average overall miss latency
system.cpu.dcache.blocked_cycles::no_mshrs       206399                       # number of cycles access was blocked
system.cpu.dcache.blocked_cycles::no_targets         1691                       # number of cycles access was blocked
system.cpu.dcache.blocked::no_mshrs              2998                       # number of cycles access was blocked
system.cpu.dcache.blocked::no_targets              29                       # number of cycles access was blocked
system.cpu.dcache.avg_blocked_cycles::no_mshrs    68.845564                       # average number of cycles each access was blocked
system.cpu.dcache.avg_blocked_cycles::no_targets    58.310345                       # average number of cycles each access was blocked
system.cpu.dcache.writebacks::.writebacks        21591                       # number of writebacks
system.cpu.dcache.writebacks::total             21591                       # number of writebacks
system.cpu.dcache.demand_mshr_hits::.switch_cpus.data        80263                       # number of demand (read+write) MSHR hits
system.cpu.dcache.demand_mshr_hits::total        80263                       # number of demand (read+write) MSHR hits
system.cpu.dcache.overall_mshr_hits::.switch_cpus.data        80263                       # number of overall MSHR hits
system.cpu.dcache.overall_mshr_hits::total        80263                       # number of overall MSHR hits
system.cpu.dcache.demand_mshr_misses::.switch_cpus.data        42631                       # number of demand (read+write) MSHR misses
system.cpu.dcache.demand_mshr_misses::total        42631                       # number of demand (read+write) MSHR misses
system.cpu.dcache.overall_mshr_misses::.switch_cpus.data        42634                       # number of overall MSHR misses
system.cpu.dcache.overall_mshr_misses::total        42634                       # number of overall MSHR misses
system.cpu.dcache.demand_mshr_miss_latency::.switch_cpus.data   2556626997                       # number of demand (read+write) MSHR miss cycles
system.cpu.dcache.demand_mshr_miss_latency::total   2556626997                       # number of demand (read+write) MSHR miss cycles
system.cpu.dcache.overall_mshr_miss_latency::.switch_cpus.data   2556795497                       # number of overall MSHR miss cycles
system.cpu.dcache.overall_mshr_miss_latency::total   2556795497                       # number of overall MSHR miss cycles
system.cpu.dcache.demand_mshr_miss_rate::.switch_cpus.data     0.011296                       # mshr miss rate for demand accesses
system.cpu.dcache.demand_mshr_miss_rate::total     0.011296                       # mshr miss rate for demand accesses
system.cpu.dcache.overall_mshr_miss_rate::.switch_cpus.data     0.011297                       # mshr miss rate for overall accesses
system.cpu.dcache.overall_mshr_miss_rate::total     0.011297                       # mshr miss rate for overall accesses
system.cpu.dcache.demand_avg_mshr_miss_latency::.switch_cpus.data 59971.077315                       # average overall mshr miss latency
system.cpu.dcache.demand_avg_mshr_miss_latency::total 59971.077315                       # average overall mshr miss latency
system.cpu.dcache.overall_avg_mshr_miss_latency::.switch_cpus.data 59970.809612                       # average overall mshr miss latency
system.cpu.dcache.overall_avg_mshr_miss_latency::total 59970.809612                       # average overall mshr miss latency
system.cpu.dcache.replacements                  42486                       # number of replacements
system.cpu.dcache.ReadReq_hits::.switch_cpus.data      2443159                       # number of ReadReq hits
system.cpu.dcache.ReadReq_hits::total         2443159                       # number of ReadReq hits
system.cpu.dcache.ReadReq_misses::.switch_cpus.data       107256                       # number of ReadReq misses
system.cpu.dcache.ReadReq_misses::total        107256                       # number of ReadReq misses
system.cpu.dcache.ReadReq_miss_latency::.switch_cpus.data   6150824500                       # number of ReadReq miss cycles
system.cpu.dcache.ReadReq_miss_latency::total   6150824500                       # number of ReadReq miss cycles
system.cpu.dcache.ReadReq_accesses::.switch_cpus.data      2550415                       # number of ReadReq accesses(hits+misses)
system.cpu.dcache.ReadReq_accesses::total      2550415                       # number of ReadReq accesses(hits+misses)
system.cpu.dcache.ReadReq_miss_rate::.switch_cpus.data     0.042054                       # miss rate for ReadReq accesses
system.cpu.dcache.ReadReq_miss_rate::total     0.042054                       # miss rate for ReadReq accesses
system.cpu.dcache.ReadReq_avg_miss_latency::.switch_cpus.data 57347.136757                       # average ReadReq miss latency
system.cpu.dcache.ReadReq_avg_miss_latency::total 57347.136757                       # average ReadReq miss latency
system.cpu.dcache.ReadReq_mshr_hits::.switch_cpus.data        80240                       # number of ReadReq MSHR hits
system.cpu.dcache.ReadReq_mshr_hits::total        80240                       # number of ReadReq MSHR hits
system.cpu.dcache.ReadReq_mshr_misses::.switch_cpus.data        27016                       # number of ReadReq MSHR misses
system.cpu.dcache.ReadReq_mshr_misses::total        27016                       # number of ReadReq MSHR misses
system.cpu.dcache.ReadReq_mshr_miss_latency::.switch_cpus.data   1440854500                       # number of ReadReq MSHR miss cycles
system.cpu.dcache.ReadReq_mshr_miss_latency::total   1440854500                       # number of ReadReq MSHR miss cycles
system.cpu.dcache.ReadReq_mshr_miss_rate::.switch_cpus.data     0.010593                       # mshr miss rate for ReadReq accesses
system.cpu.dcache.ReadReq_mshr_miss_rate::total     0.010593                       # mshr miss rate for ReadReq accesses
system.cpu.dcache.ReadReq_avg_mshr_miss_latency::.switch_cpus.data 53333.376518                       # average ReadReq mshr miss latency
system.cpu.dcache.ReadReq_avg_mshr_miss_latency::total 53333.376518                       # average ReadReq mshr miss latency
system.cpu.dcache.WriteReq_hits::.switch_cpus.data      1207786                       # number of WriteReq hits
system.cpu.dcache.WriteReq_hits::total        1207786                       # number of WriteReq hits
system.cpu.dcache.WriteReq_misses::.switch_cpus.data        15638                       # number of WriteReq misses
system.cpu.dcache.WriteReq_misses::total        15638                       # number of WriteReq misses
system.cpu.dcache.WriteReq_miss_latency::.switch_cpus.data   1132563997                       # number of WriteReq miss cycles
system.cpu.dcache.WriteReq_miss_latency::total   1132563997                       # number of WriteReq miss cycles
system.cpu.dcache.WriteReq_accesses::.switch_cpus.data      1223424                       # number of WriteReq accesses(hits+misses)
system.cpu.dcache.WriteReq_accesses::total      1223424                       # number of WriteReq accesses(hits+misses)
system.cpu.dcache.WriteReq_miss_rate::.switch_cpus.data     0.012782                       # miss rate for WriteReq accesses
system.cpu.dcache.WriteReq_miss_rate::total     0.012782                       # miss rate for WriteReq accesses
system.cpu.dcache.WriteReq_avg_miss_latency::.switch_cpus.data 72423.839174                       # average WriteReq miss latency
system.cpu.dcache.WriteReq_avg_miss_latency::total 72423.839174                       # average WriteReq miss latency
system.cpu.dcache.WriteReq_mshr_hits::.switch_cpus.data           23                       # number of WriteReq MSHR hits
system.cpu.dcache.WriteReq_mshr_hits::total           23                       # number of WriteReq MSHR hits
system.cpu.dcache.WriteReq_mshr_misses::.switch_cpus.data        15615                       # number of WriteReq MSHR misses
system.cpu.dcache.WriteReq_mshr_misses::total        15615                       # number of WriteReq MSHR misses
system.cpu.dcache.WriteReq_mshr_miss_latency::.switch_cpus.data   1115772497                       # number of WriteReq MSHR miss cycles
system.cpu.dcache.WriteReq_mshr_miss_latency::total   1115772497                       # number of WriteReq MSHR miss cycles
system.cpu.dcache.WriteReq_mshr_miss_rate::.switch_cpus.data     0.012763                       # mshr miss rate for WriteReq accesses
system.cpu.dcache.WriteReq_mshr_miss_rate::total     0.012763                       # mshr miss rate for WriteReq accesses
system.cpu.dcache.WriteReq_avg_mshr_miss_latency::.switch_cpus.data 71455.171118                       # average WriteReq mshr miss latency
system.cpu.dcache.WriteReq_avg_mshr_miss_latency::total 71455.171118                       # average WriteReq mshr miss latency
system.cpu.dcache.SoftPFReq_hits::.switch_cpus.data          190                       # number of SoftPFReq hits
system.cpu.dcache.SoftPFReq_hits::total           190                       # number of SoftPFReq hits
system.cpu.dcache.SoftPFReq_misses::.switch_cpus.data            6                       # number of SoftPFReq misses
system.cpu.dcache.SoftPFReq_misses::total            6                       # number of SoftPFReq misses
system.cpu.dcache.SoftPFReq_accesses::.switch_cpus.data          196                       # number of SoftPFReq accesses(hits+misses)
system.cpu.dcache.SoftPFReq_accesses::total          196                       # number of SoftPFReq accesses(hits+misses)
system.cpu.dcache.SoftPFReq_miss_rate::.switch_cpus.data     0.030612                       # miss rate for SoftPFReq accesses
system.cpu.dcache.SoftPFReq_miss_rate::total     0.030612                       # miss rate for SoftPFReq accesses
system.cpu.dcache.SoftPFReq_mshr_misses::.switch_cpus.data            3                       # number of SoftPFReq MSHR misses
system.cpu.dcache.SoftPFReq_mshr_misses::total            3                       # number of SoftPFReq MSHR misses
system.cpu.dcache.SoftPFReq_mshr_miss_latency::.switch_cpus.data       168500                       # number of SoftPFReq MSHR miss cycles
system.cpu.dcache.SoftPFReq_mshr_miss_latency::total       168500                       # number of SoftPFReq MSHR miss cycles
system.cpu.dcache.SoftPFReq_mshr_miss_rate::.switch_cpus.data     0.015306                       # mshr miss rate for SoftPFReq accesses
system.cpu.dcache.SoftPFReq_mshr_miss_rate::total     0.015306                       # mshr miss rate for SoftPFReq accesses
system.cpu.dcache.SoftPFReq_avg_mshr_miss_latency::.switch_cpus.data 56166.666667                       # average SoftPFReq mshr miss latency
system.cpu.dcache.SoftPFReq_avg_mshr_miss_latency::total 56166.666667                       # average SoftPFReq mshr miss latency
system.cpu.dcache.power_state.pwrStateResidencyTicks::UNDEFINED   6086500000                       # Cumulative time (in ticks) in various power states
system.cpu.dcache.tags.tagsinuse                 1024                       # Cycle average of tags in use
system.cpu.dcache.tags.total_refs             3896008                       # Total number of references to valid blocks.
system.cpu.dcache.tags.sampled_refs             43510                       # Sample count of references to valid blocks.
system.cpu.dcache.tags.avg_refs             89.542818                       # Average number of references to valid blocks.
system.cpu.dcache.tags.warmup_cycle                 0                       # Cycle when the warmup percentage was hit.
system.cpu.dcache.tags.occ_blocks::.cpu.data    17.778357                       # Average occupied blocks per requestor
system.cpu.dcache.tags.occ_blocks::.switch_cpus.data  1006.221643                       # Average occupied blocks per requestor
system.cpu.dcache.tags.occ_percent::.cpu.data     0.017362                       # Average percentage of cache occupancy
system.cpu.dcache.tags.occ_percent::.switch_cpus.data     0.982638                       # Average percentage of cache occupancy
system.cpu.dcache.tags.occ_percent::total            1                       # Average percentage of cache occupancy
system.cpu.dcache.tags.occ_task_id_blocks::1024         1024                       # Occupied blocks per task id
system.cpu.dcache.tags.age_task_id_blocks_1024::0           93                       # Occupied blocks per task id
system.cpu.dcache.tags.age_task_id_blocks_1024::1          583                       # Occupied blocks per task id
system.cpu.dcache.tags.age_task_id_blocks_1024::2          336                       # Occupied blocks per task id
system.cpu.dcache.tags.age_task_id_blocks_1024::3           12                       # Occupied blocks per task id
system.cpu.dcache.tags.occ_task_id_percent::1024            1                       # Percentage of cache occupancy per task id
system.cpu.dcache.tags.tag_accesses           7590556                       # Number of tag accesses
system.cpu.dcache.tags.data_accesses          7590556                       # Number of data accesses
system.cpu.dcache.tags.power_state.pwrStateResidencyTicks::UNDEFINED   6086500000                       # Cumulative time (in ticks) in various power states
system.cpu.dtb.rdAccesses                           0                       # TLB accesses on read requests
system.cpu.dtb.wrAccesses                           0                       # TLB accesses on write requests
system.cpu.dtb.rdMisses                             0                       # TLB misses on read requests
system.cpu.dtb.wrMisses                             0                       # TLB misses on write requests
system.cpu.dtb.walker.power_state.pwrStateResidencyTicks::UNDEFINED   6086500000                       # Cumulative time (in ticks) in various power states
system.cpu.dtb_walker_cache.blocked_cycles::no_mshrs            0                       # number of cycles access was blocked
system.cpu.dtb_walker_cache.blocked_cycles::no_targets            0                       # number of cycles access was blocked
system.cpu.dtb_walker_cache.blocked::no_mshrs            0                       # number of cycles access was blocked
system.cpu.dtb_walker_cache.blocked::no_targets            0                       # number of cycles access was blocked
system.cpu.dtb_walker_cache.avg_blocked_cycles::no_mshrs          nan                       # average number of cycles each access was blocked
system.cpu.dtb_walker_cache.avg_blocked_cycles::no_targets          nan                       # average number of cycles each access was blocked
system.cpu.dtb_walker_cache.replacements            0                       # number of replacements
system.cpu.dtb_walker_cache.power_state.pwrStateResidencyTicks::UNDEFINED   6086500000                       # Cumulative time (in ticks) in various power states
system.cpu.dtb_walker_cache.tags.tagsinuse            0                       # Cycle average of tags in use
system.cpu.dtb_walker_cache.tags.total_refs            0                       # Total number of references to valid blocks.
system.cpu.dtb_walker_cache.tags.sampled_refs            0                       # Sample count of references to valid blocks.
system.cpu.dtb_walker_cache.tags.avg_refs          nan                       # Average number of references to valid blocks.
system.cpu.dtb_walker_cache.tags.warmup_cycle            0                       # Cycle when the warmup percentage was hit.
system.cpu.dtb_walker_cache.tags.tag_accesses            0                       # Number of tag accesses
system.cpu.dtb_walker_cache.tags.data_accesses            0                       # Number of data accesses
system.cpu.dtb_walker_cache.tags.power_state.pwrStateResidencyTicks::UNDEFINED   6086500000                       # Cumulative time (in ticks) in various power states
system.cpu.icache.demand_hits::.switch_cpus.inst      1675687                       # number of demand (read+write) hits
system.cpu.icache.demand_hits::total          1675687                       # number of demand (read+write) hits
system.cpu.icache.overall_hits::.switch_cpus.inst      1675687                       # number of overall hits
system.cpu.icache.overall_hits::total         1675687                       # number of overall hits
system.cpu.icache.demand_misses::.switch_cpus.inst        65757                       # number of demand (read+write) misses
system.cpu.icache.demand_misses::total          65757                       # number of demand (read+write) misses
system.cpu.icache.overall_misses::.switch_cpus.inst        65757                       # number of overall misses
system.cpu.icache.overall_misses::total         65757                       # number of overall misses
system.cpu.icache.demand_miss_latency::.switch_cpus.inst   1425939499                       # number of demand (read+write) miss cycles
system.cpu.icache.demand_miss_latency::total   1425939499                       # number of demand (read+write) miss cycles
system.cpu.icache.overall_miss_latency::.switch_cpus.inst   1425939499                       # number of overall miss cycles
system.cpu.icache.overall_miss_latency::total   1425939499                       # number of overall miss cycles
system.cpu.icache.demand_accesses::.switch_cpus.inst      1741444                       # number of demand (read+write) accesses
system.cpu.icache.demand_accesses::total      1741444                       # number of demand (read+write) accesses
system.cpu.icache.overall_accesses::.switch_cpus.inst      1741444                       # number of overall (read+write) accesses
system.cpu.icache.overall_accesses::total      1741444                       # number of overall (read+write) accesses
system.cpu.icache.demand_miss_rate::.switch_cpus.inst     0.037760                       # miss rate for demand accesses
system.cpu.icache.demand_miss_rate::total     0.037760                       # miss rate for demand accesses
system.cpu.icache.overall_miss_rate::.switch_cpus.inst     0.037760                       # miss rate for overall accesses
system.cpu.icache.overall_miss_rate::total     0.037760                       # miss rate for overall accesses
system.cpu.icache.demand_avg_miss_latency::.switch_cpus.inst 21684.984093                       # average overall miss latency
system.cpu.icache.demand_avg_miss_latency::total 21684.984093                       # average overall miss latency
system.cpu.icache.overall_avg_miss_latency::.switch_cpus.inst 21684.984093                       # average overall miss latency
system.cpu.icache.overall_avg_miss_latency::total 21684.984093                       # average overall miss latency
system.cpu.icache.blocked_cycles::no_mshrs         2786                       # number of cycles access was blocked
system.cpu.icache.blocked_cycles::no_targets            0                       # number of cycles access was blocked
system.cpu.icache.blocked::no_mshrs                45                       # number of cycles access was blocked
system.cpu.icache.blocked::no_targets               0                       # number of cycles access was blocked
system.cpu.icache.avg_blocked_cycles::no_mshrs    61.911111                       # average number of cycles each access was blocked
system.cpu.icache.avg_blocked_cycles::no_targets          nan                       # average number of cycles each access was blocked
system.cpu.icache.writebacks::.writebacks        60408                       # number of writebacks
system.cpu.icache.writebacks::total             60408                       # number of writebacks
system.cpu.icache.demand_mshr_hits::.switch_cpus.inst         4869                       # number of demand (read+write) MSHR hits
system.cpu.icache.demand_mshr_hits::total         4869                       # number of demand (read+write) MSHR hits
system.cpu.icache.overall_mshr_hits::.switch_cpus.inst         4869                       # number of overall MSHR hits
system.cpu.icache.overall_mshr_hits::total         4869                       # number of overall MSHR hits
system.cpu.icache.demand_mshr_misses::.switch_cpus.inst        60888                       # number of demand (read+write) MSHR misses
system.cpu.icache.demand_mshr_misses::total        60888                       # number of demand (read+write) MSHR misses
system.cpu.icache.overall_mshr_misses::.switch_cpus.inst        60888                       # number of overall MSHR misses
system.cpu.icache.overall_mshr_misses::total        60888                       # number of overall MSHR misses
system.cpu.icache.demand_mshr_miss_latency::.switch_cpus.inst   1205222500                       # number of demand (read+write) MSHR miss cycles
system.cpu.icache.demand_mshr_miss_latency::total   1205222500                       # number of demand (read+write) MSHR miss cycles
system.cpu.icache.overall_mshr_miss_latency::.switch_cpus.inst   1205222500                       # number of overall MSHR miss cycles
system.cpu.icache.overall_mshr_miss_latency::total   1205222500                       # number of overall MSHR miss cycles
system.cpu.icache.demand_mshr_miss_rate::.switch_cpus.inst     0.034964                       # mshr miss rate for demand accesses
system.cpu.icache.demand_mshr_miss_rate::total     0.034964                       # mshr miss rate for demand accesses
system.cpu.icache.overall_mshr_miss_rate::.switch_cpus.inst     0.034964                       # mshr miss rate for overall accesses
system.cpu.icache.overall_mshr_miss_rate::total     0.034964                       # mshr miss rate for overall accesses
system.cpu.icache.demand_avg_mshr_miss_latency::.switch_cpus.inst 19794.089147                       # average overall mshr miss latency
system.cpu.icache.demand_avg_mshr_miss_latency::total 19794.089147                       # average overall mshr miss latency
system.cpu.icache.overall_avg_mshr_miss_latency::.switch_cpus.inst 19794.089147                       # average overall mshr miss latency
system.cpu.icache.overall_avg_mshr_miss_latency::total 19794.089147                       # average overall mshr miss latency
system.cpu.icache.replacements                  60408                       # number of replacements
system.cpu.icache.ReadReq_hits::.switch_cpus.inst      1675687                       # number of ReadReq hits
system.cpu.icache.ReadReq_hits::total         1675687                       # number of ReadReq hits
system.cpu.icache.ReadReq_misses::.switch_cpus.inst        65757                       # number of ReadReq misses
system.cpu.icache.ReadReq_misses::total         65757                       # number of ReadReq misses
system.cpu.icache.ReadReq_miss_latency::.switch_cpus.inst   1425939499                       # number of ReadReq miss cycles
system.cpu.icache.ReadReq_miss_latency::total   1425939499                       # number of ReadReq miss cycles
system.cpu.icache.ReadReq_accesses::.switch_cpus.inst      1741444                       # number of ReadReq accesses(hits+misses)
system.cpu.icache.ReadReq_accesses::total      1741444                       # number of ReadReq accesses(hits+misses)
system.cpu.icache.ReadReq_miss_rate::.switch_cpus.inst     0.037760                       # miss rate for ReadReq accesses
system.cpu.icache.ReadReq_miss_rate::total     0.037760                       # miss rate for ReadReq accesses
system.cpu.icache.ReadReq_avg_miss_latency::.switch_cpus.inst 21684.984093                       # average ReadReq miss latency
system.cpu.icache.ReadReq_avg_miss_latency::total 21684.984093                       # average ReadReq miss latency
system.cpu.icache.ReadReq_mshr_hits::.switch_cpus.inst         4869                       # number of ReadReq MSHR hits
system.cpu.icache.ReadReq_mshr_hits::total         4869                       # number of ReadReq MSHR hits
system.cpu.icache.ReadReq_mshr_misses::.switch_cpus.inst        60888                       # number of ReadReq MSHR misses
system.cpu.icache.ReadReq_mshr_misses::total        60888                       # number of ReadReq MSHR misses
system.cpu.icache.ReadReq_mshr_miss_latency::.switch_cpus.inst   1205222500                       # number of ReadReq MSHR miss cycles
system.cpu.icache.ReadReq_mshr_miss_latency::total   1205222500                       # number of ReadReq MSHR miss cycles
system.cpu.icache.ReadReq_mshr_miss_rate::.switch_cpus.inst     0.034964                       # mshr miss rate for ReadReq accesses
system.cpu.icache.ReadReq_mshr_miss_rate::total     0.034964                       # mshr miss rate for ReadReq accesses
system.cpu.icache.ReadReq_avg_mshr_miss_latency::.switch_cpus.inst 19794.089147                       # average ReadReq mshr miss latency
system.cpu.icache.ReadReq_avg_mshr_miss_latency::total 19794.089147                       # average ReadReq mshr miss latency
system.cpu.icache.power_state.pwrStateResidencyTicks::UNDEFINED   6086500000                       # Cumulative time (in ticks) in various power states
system.cpu.icache.tags.tagsinuse           954.481602                       # Cycle average of tags in use
system.cpu.icache.tags.total_refs             3071348                       # Total number of references to valid blocks.
system.cpu.icache.tags.sampled_refs             61558                       # Sample count of references to valid blocks.
system.cpu.icache.tags.avg_refs             49.893564                       # Average number of references to valid blocks.
system.cpu.icache.tags.warmup_cycle                 0                       # Cycle when the warmup percentage was hit.
system.cpu.icache.tags.occ_blocks::.cpu.inst   143.944628                       # Average occupied blocks per requestor
system.cpu.icache.tags.occ_blocks::.switch_cpus.inst   810.536974                       # Average occupied blocks per requestor
system.cpu.icache.tags.occ_percent::.cpu.inst     0.140571                       # Average percentage of cache occupancy
system.cpu.icache.tags.occ_percent::.switch_cpus.inst     0.791540                       # Average percentage of cache occupancy
system.cpu.icache.tags.occ_percent::total     0.932111                       # Average percentage of cache occupancy
system.cpu.icache.tags.occ_task_id_blocks::1024         1006                       # Occupied blocks per task id
system.cpu.icache.tags.age_task_id_blocks_1024::0           95                       # Occupied blocks per task id
system.cpu.icache.tags.age_task_id_blocks_1024::1          232                       # Occupied blocks per task id
system.cpu.icache.tags.age_task_id_blocks_1024::2          618                       # Occupied blocks per task id
system.cpu.icache.tags.age_task_id_blocks_1024::3           61                       # Occupied blocks per task id
system.cpu.icache.tags.occ_task_id_percent::1024     0.982422                       # Percentage of cache occupancy per task id
system.cpu.icache.tags.tag_accesses           3543776                       # Number of tag accesses
system.cpu.icache.tags.data_accesses          3543776                       # Number of data accesses
system.cpu.icache.tags.power_state.pwrStateResidencyTicks::UNDEFINED   6086500000                       # Cumulative time (in ticks) in various power states
system.cpu.interrupts.clk_domain.clock           8000                       # Clock period in ticks
system.cpu.itb.rdAccesses                           0                       # TLB accesses on read requests
system.cpu.itb.wrAccesses                           0                       # TLB accesses on write requests
system.cpu.itb.rdMisses                             0                       # TLB misses on read requests
system.cpu.itb.wrMisses                             0                       # TLB misses on write requests
system.cpu.itb.walker.power_state.pwrStateResidencyTicks::UNDEFINED   6086500000                       # Cumulative time (in ticks) in various power states
system.cpu.itb_walker_cache.blocked_cycles::no_mshrs            0                       # number of cycles access was blocked
system.cpu.itb_walker_cache.blocked_cycles::no_targets            0                       # number of cycles access was blocked
system.cpu.itb_walker_cache.blocked::no_mshrs            0                       # number of cycles access was blocked
system.cpu.itb_walker_cache.blocked::no_targets            0                       # number of cycles access was blocked
system.cpu.itb_walker_cache.avg_blocked_cycles::no_mshrs          nan                       # average number of cycles each access was blocked
system.cpu.itb_walker_cache.avg_blocked_cycles::no_targets          nan                       # average number of cycles each access was blocked
system.cpu.itb_walker_cache.replacements            0                       # number of replacements
system.cpu.itb_walker_cache.power_state.pwrStateResidencyTicks::UNDEFINED   6086500000                       # Cumulative time (in ticks) in various power states
system.cpu.itb_walker_cache.tags.tagsinuse            0                       # Cycle average of tags in use
system.cpu.itb_walker_cache.tags.total_refs            0                       # Total number of references to valid blocks.
system.cpu.itb_walker_cache.tags.sampled_refs            0                       # Sample count of references to valid blocks.
system.cpu.itb_walker_cache.tags.avg_refs          nan                       # Average number of references to valid blocks.
system.cpu.itb_walker_cache.tags.warmup_cycle            0                       # Cycle when the warmup percentage was hit.
system.cpu.itb_walker_cache.tags.tag_accesses            0                       # Number of tag accesses
system.cpu.itb_walker_cache.tags.data_accesses            0                       # Number of data accesses
system.cpu.itb_walker_cache.tags.power_state.pwrStateResidencyTicks::UNDEFINED   6086500000                       # Cumulative time (in ticks) in various power states
system.cpu.power_state.pwrStateResidencyTicks::OFF   5036137000                       # Cumulative time (in ticks) in various power states
system.cpu.thread_0.numInsts                        0                       # Number of Instructions committed
system.cpu.thread_0.numOps                          0                       # Number of Ops committed
system.cpu.thread_0.numMemRefs                      0                       # Number of Memory References
system.cpu_clk_domain.clock                       500                       # Clock period in ticks
system.cpu_voltage_domain.voltage                   1                       # Voltage in Volts
system.l2.demand_hits::.switch_cpus.inst        54170                       # number of demand (read+write) hits
system.l2.demand_hits::.switch_cpus.data        13600                       # number of demand (read+write) hits
system.l2.demand_hits::total                    67770                       # number of demand (read+write) hits
system.l2.overall_hits::.switch_cpus.inst        54170                       # number of overall hits
system.l2.overall_hits::.switch_cpus.data        13600                       # number of overall hits
system.l2.overall_hits::total                   67770                       # number of overall hits
system.l2.demand_misses::.switch_cpus.inst         6479                       # number of demand (read+write) misses
system.l2.demand_misses::.switch_cpus.data        28886                       # number of demand (read+write) misses
system.l2.demand_misses::total                  35365                       # number of demand (read+write) misses
system.l2.overall_misses::.switch_cpus.inst         6479                       # number of overall misses
system.l2.overall_misses::.switch_cpus.data        28886                       # number of overall misses
system.l2.overall_misses::total                 35365                       # number of overall misses
system.l2.demand_miss_latency::.switch_cpus.inst    541979500                       # number of demand (read+write) miss cycles
system.l2.demand_miss_latency::.switch_cpus.data   2346064000                       # number of demand (read+write) miss cycles
system.l2.demand_miss_latency::total       2888043500                       # number of demand (read+write) miss cycles
system.l2.overall_miss_latency::.switch_cpus.inst    541979500                       # number of overall miss cycles
system.l2.overall_miss_latency::.switch_cpus.data   2346064000                       # number of overall miss cycles
system.l2.overall_miss_latency::total      2888043500                       # number of overall miss cycles
system.l2.demand_accesses::.switch_cpus.inst        60649                       # number of demand (read+write) accesses
system.l2.demand_accesses::.switch_cpus.data        42486                       # number of demand (read+write) accesses
system.l2.demand_accesses::total               103135                       # number of demand (read+write) accesses
system.l2.overall_accesses::.switch_cpus.inst        60649                       # number of overall (read+write) accesses
system.l2.overall_accesses::.switch_cpus.data        42486                       # number of overall (read+write) accesses
system.l2.overall_accesses::total              103135                       # number of overall (read+write) accesses
system.l2.demand_miss_rate::.switch_cpus.inst     0.106828                       # miss rate for demand accesses
system.l2.demand_miss_rate::.switch_cpus.data     0.679895                       # miss rate for demand accesses
system.l2.demand_miss_rate::total            0.342900                       # miss rate for demand accesses
system.l2.overall_miss_rate::.switch_cpus.inst     0.106828                       # miss rate for overall accesses
system.l2.overall_miss_rate::.switch_cpus.data     0.679895                       # miss rate for overall accesses
system.l2.overall_miss_rate::total           0.342900                       # miss rate for overall accesses
system.l2.demand_avg_miss_latency::.switch_cpus.inst 83651.720945                       # average overall miss latency
system.l2.demand_avg_miss_latency::.switch_cpus.data 81218.029495                       # average overall miss latency
system.l2.demand_avg_miss_latency::total 81663.890853                       # average overall miss latency
system.l2.overall_avg_miss_latency::.switch_cpus.inst 83651.720945                       # average overall miss latency
system.l2.overall_avg_miss_latency::.switch_cpus.data 81218.029495                       # average overall miss latency
system.l2.overall_avg_miss_latency::total 81663.890853                       # average overall miss latency
system.l2.blocked_cycles::no_mshrs                  0                       # number of cycles access was blocked
system.l2.blocked_cycles::no_targets                0                       # number of cycles access was blocked
system.l2.blocked::no_mshrs                         0                       # number of cycles access was blocked
system.l2.blocked::no_targets                       0                       # number of cycles access was blocked
system.l2.avg_blocked_cycles::no_mshrs            nan                       # average number of cycles each access was blocked
system.l2.avg_blocked_cycles::no_targets          nan                       # average number of cycles each access was blocked
system.l2.writebacks::.writebacks               11586                       # number of writebacks
system.l2.writebacks::total                     11586                       # number of writebacks
system.l2.demand_mshr_hits::.switch_cpus.inst            1                       # number of demand (read+write) MSHR hits
system.l2.demand_mshr_hits::total                   1                       # number of demand (read+write) MSHR hits
system.l2.overall_mshr_hits::.switch_cpus.inst            1                       # number of overall MSHR hits
system.l2.overall_mshr_hits::total                  1                       # number of overall MSHR hits
system.l2.demand_mshr_misses::.switch_cpus.inst         6478                       # number of demand (read+write) MSHR misses
system.l2.demand_mshr_misses::.switch_cpus.data        28886                       # number of demand (read+write) MSHR misses
system.l2.demand_mshr_misses::total             35364                       # number of demand (read+write) MSHR misses
system.l2.overall_mshr_misses::.switch_cpus.inst         6478                       # number of overall MSHR misses
system.l2.overall_mshr_misses::.switch_cpus.data        28886                       # number of overall MSHR misses
system.l2.overall_mshr_misses::total            35364                       # number of overall MSHR misses
system.l2.demand_mshr_miss_latency::.switch_cpus.inst    477152000                       # number of demand (read+write) MSHR miss cycles
system.l2.demand_mshr_miss_latency::.switch_cpus.data   2057204000                       # number of demand (read+write) MSHR miss cycles
system.l2.demand_mshr_miss_latency::total   2534356000                       # number of demand (read+write) MSHR miss cycles
system.l2.overall_mshr_miss_latency::.switch_cpus.inst    477152000                       # number of overall MSHR miss cycles
system.l2.overall_mshr_miss_latency::.switch_cpus.data   2057204000                       # number of overall MSHR miss cycles
system.l2.overall_mshr_miss_latency::total   2534356000                       # number of overall MSHR miss cycles
system.l2.demand_mshr_miss_rate::.switch_cpus.inst     0.106811                       # mshr miss rate for demand accesses
system.l2.demand_mshr_miss_rate::.switch_cpus.data     0.679895                       # mshr miss rate for demand accesses
system.l2.demand_mshr_miss_rate::total       0.342890                       # mshr miss rate for demand accesses
system.l2.overall_mshr_miss_rate::.switch_cpus.inst     0.106811                       # mshr miss rate for overall accesses
system.l2.overall_mshr_miss_rate::.switch_cpus.data     0.679895                       # mshr miss rate for overall accesses
system.l2.overall_mshr_miss_rate::total      0.342890                       # mshr miss rate for overall accesses
system.l2.demand_avg_mshr_miss_latency::.switch_cpus.inst 73657.301636                       # average overall mshr miss latency
system.l2.demand_avg_mshr_miss_latency::.switch_cpus.data 71218.029495                       # average overall mshr miss latency
system.l2.demand_avg_mshr_miss_latency::total 71664.856917                       # average overall mshr miss latency
system.l2.overall_avg_mshr_miss_latency::.switch_cpus.inst 73657.301636                       # average overall mshr miss latency
system.l2.overall_avg_mshr_miss_latency::.switch_cpus.data 71218.029495                       # average overall mshr miss latency
system.l2.overall_avg_mshr_miss_latency::total 71664.856917                       # average overall mshr miss latency
system.l2.replacements                          35238                       # number of replacements
system.l2.WritebackDirty_hits::.writebacks        21591                       # number of WritebackDirty hits
system.l2.WritebackDirty_hits::total            21591                       # number of WritebackDirty hits
system.l2.WritebackDirty_accesses::.writebacks        21591                       # number of WritebackDirty accesses(hits+misses)
system.l2.WritebackDirty_accesses::total        21591                       # number of WritebackDirty accesses(hits+misses)
system.l2.WritebackClean_hits::.writebacks        60228                       # number of WritebackClean hits
system.l2.WritebackClean_hits::total            60228                       # number of WritebackClean hits
system.l2.WritebackClean_accesses::.writebacks        60228                       # number of WritebackClean accesses(hits+misses)
system.l2.WritebackClean_accesses::total        60228                       # number of WritebackClean accesses(hits+misses)
system.l2.CleanEvict_mshr_misses::.writebacks           44                       # number of CleanEvict MSHR misses
system.l2.CleanEvict_mshr_misses::total            44                       # number of CleanEvict MSHR misses
system.l2.CleanEvict_mshr_miss_rate::.writebacks          inf                       # mshr miss rate for CleanEvict accesses
system.l2.CleanEvict_mshr_miss_rate::total          inf                       # mshr miss rate for CleanEvict accesses
system.l2.UpgradeReq_hits::.switch_cpus.data          128                       # number of UpgradeReq hits
system.l2.UpgradeReq_hits::total                  128                       # number of UpgradeReq hits
system.l2.UpgradeReq_misses::.switch_cpus.data           20                       # number of UpgradeReq misses
system.l2.UpgradeReq_misses::total                 20                       # number of UpgradeReq misses
system.l2.UpgradeReq_accesses::.switch_cpus.data          148                       # number of UpgradeReq accesses(hits+misses)
system.l2.UpgradeReq_accesses::total              148                       # number of UpgradeReq accesses(hits+misses)
system.l2.UpgradeReq_miss_rate::.switch_cpus.data     0.135135                       # miss rate for UpgradeReq accesses
system.l2.UpgradeReq_miss_rate::total        0.135135                       # miss rate for UpgradeReq accesses
system.l2.UpgradeReq_mshr_misses::.switch_cpus.data           20                       # number of UpgradeReq MSHR misses
system.l2.UpgradeReq_mshr_misses::total            20                       # number of UpgradeReq MSHR misses
system.l2.UpgradeReq_mshr_miss_latency::.switch_cpus.data       398000                       # number of UpgradeReq MSHR miss cycles
system.l2.UpgradeReq_mshr_miss_latency::total       398000                       # number of UpgradeReq MSHR miss cycles
[...]
system.switch_cpus.commit.committedInstType_0::SimdCmp           60      0.00%     79.45% # Class of committed instruction
system.switch_cpus.commit.committedInstType_0::SimdCvt        10190      0.05%     79.51% # Class of committed instruction
system.switch_cpus.commit.committedInstType_0::SimdMisc        14930      0.08%     79.59% # Class of committed instruction
system.switch_cpus.commit.committedInstType_0::SimdMult            0      0.00%     79.59% # Class of committed instruction
system.switch_cpus.commit.committedInstType_0::SimdMultAcc            0      0.00%     79.59% # Class of committed instruction
system.switch_cpus.commit.committedInstType_0::SimdShift         1042      0.01%     79.59% # Class of committed instruction
system.switch_cpus.commit.committedInstType_0::SimdShiftAcc            0      0.00%     79.59% # Class of committed instruction
system.switch_cpus.commit.committedInstType_0::SimdDiv            0      0.00%     79.59% # Class of committed instruction
system.switch_cpus.commit.committedInstType_0::SimdSqrt            0      0.00%     79.59% # Class of committed instruction
system.switch_cpus.commit.committedInstType_0::SimdFloatAdd            5      0.00%     79.59% # Class of committed instruction
system.switch_cpus.commit.committedInstType_0::SimdFloatAlu            0      0.00%     79.59% # Class of committed instruction
system.switch_cpus.commit.committedInstType_0::SimdFloatCmp            0      0.00%     79.59% # Class of committed instruction
system.switch_cpus.commit.committedInstType_0::SimdFloatCvt          178      0.00%     79.59% # Class of committed instruction
system.switch_cpus.commit.committedInstType_0::SimdFloatDiv            1      0.00%     79.59% # Class of committed instruction
system.switch_cpus.commit.committedInstType_0::SimdFloatMisc            0      0.00%     79.59% # Class of committed instruction
system.switch_cpus.commit.committedInstType_0::SimdFloatMult           62      0.00%     79.59% # Class of committed instruction
system.switch_cpus.commit.committedInstType_0::SimdFloatMultAcc            0      0.00%     79.59% # Class of committed instruction
system.switch_cpus.commit.committedInstType_0::SimdFloatSqrt            1      0.00%     79.59% # Class of committed instruction
system.switch_cpus.commit.committedInstType_0::SimdReduceAdd            0      0.00%     79.59% # Class of committed instruction
system.switch_cpus.commit.committedInstType_0::SimdReduceAlu            0      0.00%     79.59% # Class of committed instruction
system.switch_cpus.commit.committedInstType_0::SimdReduceCmp            0      0.00%     79.59% # Class of committed instruction
system.switch_cpus.commit.committedInstType_0::SimdFloatReduceAdd            0      0.00%     79.59% # Class of committed instruction
system.switch_cpus.commit.committedInstType_0::SimdFloatReduceCmp            0      0.00%     79.59% # Class of committed instruction
system.switch_cpus.commit.committedInstType_0::SimdAes            0      0.00%     79.59% # Class of committed instruction
system.switch_cpus.commit.committedInstType_0::SimdAesMix            0      0.00%     79.59% # Class of committed instruction
system.switch_cpus.commit.committedInstType_0::SimdSha1Hash            0      0.00%     79.59% # Class of committed instruction
system.switch_cpus.commit.committedInstType_0::SimdSha1Hash2            0      0.00%     79.59% # Class of committed instruction
system.switch_cpus.commit.committedInstType_0::SimdSha256Hash            0      0.00%     79.59% # Class of committed instruction
system.switch_cpus.commit.committedInstType_0::SimdSha256Hash2            0      0.00%     79.59% # Class of committed instruction
system.switch_cpus.commit.committedInstType_0::SimdShaSigma2            0      0.00%     79.59% # Class of committed instruction
system.switch_cpus.commit.committedInstType_0::SimdShaSigma3            0      0.00%     79.59% # Class of committed instruction
system.switch_cpus.commit.committedInstType_0::SimdPredAlu            0      0.00%     79.59% # Class of committed instruction
system.switch_cpus.commit.committedInstType_0::MemRead      2584754     13.74%     93.33% # Class of committed instruction
system.switch_cpus.commit.committedInstType_0::MemWrite      1160959      6.17%     99.50% # Class of committed instruction
system.switch_cpus.commit.committedInstType_0::FloatMemRead        32628      0.17%     99.67% # Class of committed instruction
system.switch_cpus.commit.committedInstType_0::FloatMemWrite        61595      0.33%    100.00% # Class of committed instruction
system.switch_cpus.commit.committedInstType_0::IprAccess            0      0.00%    100.00% # Class of committed instruction
system.switch_cpus.commit.committedInstType_0::InstPrefetch            0      0.00%    100.00% # Class of committed instruction
system.switch_cpus.commit.committedInstType_0::total     18817440                       # Class of committed instruction
system.switch_cpus.commit.commitEligibleSamples      1160898                       # number cycles where commit BW limit reached
system.switch_cpus.decode.idleCycles          2965351                       # Number of cycles decode is idle
system.switch_cpus.decode.blockedCycles       2981646                       # Number of cycles decode is blocked
system.switch_cpus.decode.runCycles           3251008                       # Number of cycles decode is running
system.switch_cpus.decode.unblockCycles        302192                       # Number of cycles decode is unblocking
system.switch_cpus.decode.squashCycles          77971                       # Number of cycles decode is squashing
system.switch_cpus.decode.branchResolved      1245127                       # Number of times decode resolved a  branch
system.switch_cpus.decode.branchMispred         13534                       # Number of times decode detected a branch misprediction
system.switch_cpus.decode.decodedInsts       22925827                       # Number of instructions handled by decode
system.switch_cpus.decode.squashedInsts         68676                       # Number of squashed instructions handled by decode
system.switch_cpus.dtb.rdAccesses             2918850                       # TLB accesses on read requests
system.switch_cpus.dtb.wrAccesses             1299729                       # TLB accesses on write requests
system.switch_cpus.dtb.rdMisses                  3692                       # TLB misses on read requests
system.switch_cpus.dtb.wrMisses                  1361                       # TLB misses on write requests
system.switch_cpus.dtb.walker.power_state.pwrStateResidencyTicks::UNDEFINED   6086500000                       # Cumulative time (in ticks) in various power states
system.switch_cpus.fetch.icacheStallCycles      3116773                       # Number of cycles fetch is stalled on an Icache miss
system.switch_cpus.fetch.insts               12463220                       # Number of instructions fetch has processed
system.switch_cpus.fetch.branches             2702121                       # Number of branches that fetch encountered
system.switch_cpus.fetch.predictedBranches      1578239                       # Number of branches that fetch has predicted taken
system.switch_cpus.fetch.cycles               6360144                       # Number of cycles fetch has run and was not squashing or blocked
system.switch_cpus.fetch.squashCycles          182446                       # Number of cycles fetch has spent squashing
system.switch_cpus.fetch.miscStallCycles         1360                       # Number of cycles fetch has spent waiting on interrupts,or bad addresses, or out of MSHRs
system.switch_cpus.fetch.pendingTrapStallCycles         8303                       # Number of stall cycles due to pending traps
system.switch_cpus.fetch.pendingQuiesceStallCycles           26                       # Number of stall cycles due to pending quiesce instructions
system.switch_cpus.fetch.icacheWaitRetryStallCycles          341                       # Number of stall cycles due to full MSHR
system.switch_cpus.fetch.cacheLines           1741446                       # Number of cache lines fetched
system.switch_cpus.fetch.icacheSquashes         33445                       # Number of outstanding Icache misses that were squashed
system.switch_cpus.fetch.nisnDist::samples      9578170                       # Number of instructions fetched each cycle (Total)
system.switch_cpus.fetch.nisnDist::mean      2.473465                       # Number of instructions fetched each cycle (Total)
system.switch_cpus.fetch.nisnDist::stdev     3.366708                       # Number of instructions fetched each cycle (Total)
system.switch_cpus.fetch.nisnDist::underflows            0      0.00%      0.00% # Number of instructions fetched each cycle (Total)
system.switch_cpus.fetch.nisnDist::0          5705130     59.56%     59.56% # Number of instructions fetched each cycle (Total)
system.switch_cpus.fetch.nisnDist::1           307695      3.21%     62.78% # Number of instructions fetched each cycle (Total)
system.switch_cpus.fetch.nisnDist::2           173448      1.81%     64.59% # Number of instructions fetched each cycle (Total)
system.switch_cpus.fetch.nisnDist::3           224421      2.34%     66.93% # Number of instructions fetched each cycle (Total)
system.switch_cpus.fetch.nisnDist::4           292689      3.06%     69.99% # Number of instructions fetched each cycle (Total)
system.switch_cpus.fetch.nisnDist::5           342798      3.58%     73.57% # Number of instructions fetched each cycle (Total)
system.switch_cpus.fetch.nisnDist::6           251275      2.62%     76.19% # Number of instructions fetched each cycle (Total)
system.switch_cpus.fetch.nisnDist::7           274697      2.87%     79.06% # Number of instructions fetched each cycle (Total)
system.switch_cpus.fetch.nisnDist::8          2006017     20.94%    100.00% # Number of instructions fetched each cycle (Total)
system.switch_cpus.fetch.nisnDist::overflows            0      0.00%    100.00% # Number of instructions fetched each cycle (Total)
system.switch_cpus.fetch.nisnDist::min_value            0                       # Number of instructions fetched each cycle (Total)
system.switch_cpus.fetch.nisnDist::max_value            8                       # Number of instructions fetched each cycle (Total)
system.switch_cpus.fetch.nisnDist::total      9578170                       # Number of instructions fetched each cycle (Total)
system.switch_cpus.fetch.branchRate          0.268273                       # Number of branch fetches per cycle
system.switch_cpus.fetch.rate                1.237379                       # Number of inst fetches per cycle
system.switch_cpus.itb.rdAccesses                   0                       # TLB accesses on read requests
system.switch_cpus.itb.wrAccesses             1742735                       # TLB accesses on write requests
system.switch_cpus.itb.rdMisses                     0                       # TLB misses on read requests
system.switch_cpus.itb.wrMisses                 22676                       # TLB misses on write requests
system.switch_cpus.itb.walker.power_state.pwrStateResidencyTicks::UNDEFINED   6086500000                       # Cumulative time (in ticks) in various power states
system.switch_cpus.lsq0.forwLoads              366231                       # Number of loads that had data forwarded from stores
system.switch_cpus.lsq0.squashedLoads          465690                       # Number of loads squashed
system.switch_cpus.lsq0.ignoredResponses          834                       # Number of memory responses ignored because the instruction is squashed
system.switch_cpus.lsq0.memOrderViolation          589                       # Number of memory ordering violations
system.switch_cpus.lsq0.squashedStores         129489                       # Number of stores squashed
system.switch_cpus.lsq0.rescheduledLoads          186                       # Number of loads that were rescheduled
system.switch_cpus.lsq0.blockedByCache           2400                       # Number of times an access to memory failed due to the cache being blocked
system.switch_cpus.power_state.pwrStateResidencyTicks::OFF   6086500000                       # Cumulative time (in ticks) in various power states
system.switch_cpus.rename.squashCycles          77971                       # Number of cycles rename is squashing
system.switch_cpus.rename.idleCycles          3110285                       # Number of cycles rename is idle
system.switch_cpus.rename.blockCycles         1667171                       # Number of cycles rename is blocking
system.switch_cpus.rename.serializeStallCycles         9811                       # count of cycles rename stalledfor serializing inst
system.switch_cpus.rename.runCycles           3385597                       # Number of cycles rename is running
system.switch_cpus.rename.unblockCycles       1327313                       # Number of cycles rename is unblocking
system.switch_cpus.rename.renamedInsts       22609293                       # Number of instructions processed by rename
system.switch_cpus.rename.ROBFullEvents         10989                       # Number of times rename has blocked due to ROB full
system.switch_cpus.rename.IQFullEvents         372776                       # Number of times rename has blocked due to IQ full
system.switch_cpus.rename.LQFullEvents          36248                       # Number of times rename has blocked due to LQ full
system.switch_cpus.rename.SQFullEvents         888644                       # Number of times rename has blocked due to SQ full
system.switch_cpus.rename.fullRegistersEvents          330                       # Number of times there has been no free registers
system.switch_cpus.rename.renamedOperands     26722837                       # Number of destination operands rename has renamed
system.switch_cpus.rename.lookups            58175072                       # Number of register rename lookups that rename has made
system.switch_cpus.rename.intLookups         35445549                       # Number of integer rename lookups
system.switch_cpus.rename.fpLookups            237579                       # Number of floating rename lookups
system.switch_cpus.rename.committedMaps      22061479                       # Number of HB maps that are committed
system.switch_cpus.rename.undoneMaps          4661326                       # Number of HB maps that are undone due to squashing
system.switch_cpus.rename.serializing             655                       # count of serializing insts renamed
system.switch_cpus.rename.tempSerializing          647                       # count of temporary serializing insts renamed
system.switch_cpus.rename.skidInsts           1289324                       # count of insts added to the skid buffer
system.switch_cpus.rob.reads                 30018440                       # The number of ROB reads
system.switch_cpus.rob.writes                44561625                       # The number of ROB writes
system.switch_cpus.thread_0.numInsts         10000000                       # Number of Instructions committed
system.switch_cpus.thread_0.numOps           18817440                       # Number of Ops committed
system.switch_cpus.thread_0.numMemRefs              0                       # Number of Memory References
system.tol2bus.trans_dist::ReadResp             87906                       # Transaction distribution
system.tol2bus.trans_dist::WritebackDirty        33177                       # Transaction distribution
system.tol2bus.trans_dist::WritebackClean        60408                       # Transaction distribution
system.tol2bus.trans_dist::CleanEvict           44547                       # Transaction distribution
system.tol2bus.trans_dist::UpgradeReq             148                       # Transaction distribution
system.tol2bus.trans_dist::UpgradeResp            148                       # Transaction distribution
system.tol2bus.trans_dist::ReadExReq            15468                       # Transaction distribution
system.tol2bus.trans_dist::ReadExResp           15468                       # Transaction distribution
system.tol2bus.trans_dist::ReadCleanReq         60888                       # Transaction distribution
system.tol2bus.trans_dist::ReadSharedReq        27018                       # Transaction distribution
system.tol2bus.pkt_count_system.cpu.icache.mem_side_port::system.l2.cpu_side_port       181945                       # Packet count per connected requestor and responder (bytes)
system.tol2bus.pkt_count_system.cpu.dcache.mem_side_port::system.l2.cpu_side_port       127754                       # Packet count per connected requestor and responder (bytes)
system.tol2bus.pkt_count::total                309699                       # Packet count per connected requestor and responder (bytes)
system.tol2bus.pkt_size_system.cpu.icache.mem_side_port::system.l2.cpu_side_port      7747648                       # Cumulative packet size per connected requestor and responder (bytes)
system.tol2bus.pkt_size_system.cpu.dcache.mem_side_port::system.l2.cpu_side_port      4100928                       # Cumulative packet size per connected requestor and responder (bytes)
system.tol2bus.pkt_size::total               11848576                       # Cumulative packet size per connected requestor and responder (bytes)
system.tol2bus.snoops                           35477                       # Total snoops (count)
system.tol2bus.snoopTraffic                    756800                       # Total snoop traffic (bytes)
system.tol2bus.snoop_fanout::samples           138760                       # Request fanout histogram
system.tol2bus.snoop_fanout::mean            0.019235                       # Request fanout histogram
system.tol2bus.snoop_fanout::stdev           0.137664                       # Request fanout histogram
system.tol2bus.snoop_fanout::underflows             0      0.00%      0.00% # Request fanout histogram
system.tol2bus.snoop_fanout::0                 136097     98.08%     98.08% # Request fanout histogram
system.tol2bus.snoop_fanout::1                   2657      1.91%    100.00% # Request fanout histogram
system.tol2bus.snoop_fanout::2                      6      0.00%    100.00% # Request fanout histogram
system.tol2bus.snoop_fanout::3                      0      0.00%    100.00% # Request fanout histogram
system.tol2bus.snoop_fanout::4                      0      0.00%    100.00% # Request fanout histogram
system.tol2bus.snoop_fanout::overflows              0      0.00%    100.00% # Request fanout histogram
system.tol2bus.snoop_fanout::min_value              0                       # Request fanout histogram
system.tol2bus.snoop_fanout::max_value              2                       # Request fanout histogram
system.tol2bus.snoop_fanout::total             138760                       # Request fanout histogram
system.tol2bus.power_state.pwrStateResidencyTicks::UNDEFINED   6086500000                       # Cumulative time (in ticks) in various power states
system.tol2bus.reqLayer0.occupancy          185207499                       # Layer occupancy (ticks)
system.tol2bus.reqLayer0.utilization              3.7                       # Layer utilization (%)
system.tol2bus.respLayer0.occupancy          91367429                       # Layer occupancy (ticks)
system.tol2bus.respLayer0.utilization             1.8                       # Layer utilization (%)
system.tol2bus.respLayer1.occupancy          63810984                       # Layer occupancy (ticks)
system.tol2bus.respLayer1.utilization             1.3                       # Layer utilization (%)
system.voltage_domain.voltage                       1                       # Voltage in Volts

---------- End Simulation Statistics   ----------
