
---------- Begin Simulation Statistics ----------
final_tick                                 4927561000                       # Number of ticks from beginning of simulation (restored from checkpoints and never reset)
host_inst_rate                                 136599                       # Simulator instruction rate (inst/s)
host_mem_usage                                8737416                       # Number of bytes of host memory used
host_op_rate                                   258578                       # Simulator op (including micro ops) rate (op/s)
host_seconds                                    48.52                       # Real time elapsed on the host
host_tick_rate                               79900381                       # Simulator tick rate (ticks/s)
sim_freq                                 1000000000000                       # Frequency of simulated ticks
sim_insts                                     6628200                       # Number of instructions simulated
sim_ops                                      12546979                       # Number of ops (including micro ops) simulated
sim_seconds                                  0.003877                       # Number of seconds simulated
sim_ticks                                  3877013500                       # Number of ticks simulated
system.cpu.committedInsts                           0                       # Number of instructions committed
system.cpu.committedOps                             0                       # Number of ops (including micro ops) committed
system.cpu.idle_fraction                            0                       # Percentage of idle cycles
system.cpu.not_idle_fraction                        1                       # Percentage of non-idle cycles
system.cpu.numCycles                                0                       # number of cpu cycles simulated
system.cpu.numWorkItemsCompleted                    0                       # number of work items this cpu completed
system.cpu.numWorkItemsStarted                      0                       # number of work items this cpu started
system.cpu.num_busy_cycles                          0                       # Number of busy cycles
system.cpu.num_conditional_control_insts            0                       # number of instructions that are conditional controls
system.cpu.num_fp_alu_accesses                      0                       # Number of float alu accesses
system.cpu.num_fp_insts                             0                       # number of float instructions
system.cpu.num_fp_register_reads                    0                       # number of times the floating registers were read
system.cpu.num_fp_register_writes                   0                       # number of times the floating registers were written
system.cpu.num_func_calls                           0                       # number of times a function call or return occured
system.cpu.num_idle_cycles                          0                       # Number of idle cycles
system.cpu.num_int_alu_accesses                     0                       # Number of integer alu accesses
system.cpu.num_int_insts                            0                       # number of integer instructions
system.cpu.num_int_register_reads                   0                       # number of times the integer registers were read
system.cpu.num_int_register_writes                  0                       # number of times the integer registers were written
system.cpu.num_load_insts                           0                       # Number of load instructions
system.cpu.num_mem_refs                             0                       # number of memory refs
system.cpu.num_store_insts                          0                       # Number of store instructions
system.cpu.num_vec_alu_accesses                     0                       # Number of vector alu accesses
system.cpu.num_vec_insts                            0                       # number of vector instructions
system.cpu.num_vec_register_reads                   0                       # number of times the vector registers were read
system.cpu.num_vec_register_writes                  0                       # number of times the vector registers were written
system.cpu.op_class::No_OpClass                     0                       # Class of executed instruction
system.cpu.op_class::IntAlu                         0                       # Class of executed instruction
system.cpu.op_class::IntMult                        0                       # Class of executed instruction
system.cpu.op_class::IntDiv                         0                       # Class of executed instruction
system.cpu.op_class::FloatAdd                       0                       # Class of executed instruction
system.cpu.op_class::FloatCmp                       0                       # Class of executed instruction
system.cpu.op_class::FloatCvt                       0                       # Class of executed instruction
system.cpu.op_class::FloatMult                      0                       # Class of executed instruction
system.cpu.op_class::FloatMultAcc                   0                       # Class of executed instruction
system.cpu.op_class::FloatDiv                       0                       # Class of executed instruction
system.cpu.op_class::FloatMisc                      0                       # Class of executed instruction
system.cpu.op_class::FloatSqrt                      0                       # Class of executed instruction
system.cpu.op_class::SimdAdd                        0                       # Class of executed instruction
system.cpu.op_class::SimdAddAcc                     0                       # Class of executed instruction
system.cpu.op_class::SimdAlu                        0                       # Class of executed instruction
system.cpu.op_class::SimdCmp                        0                       # Class of executed instruction
system.cpu.op_class::SimdCvt                        0                       # Class of executed instruction
system.cpu.op_class::SimdMisc                       0                       # Class of executed instruction
system.cpu.op_class::SimdMult                       0                       # Class of executed instruction
system.cpu.op_class::SimdMultAcc                    0                       # Class of executed instruction
system.cpu.op_class::SimdShift                      0                       # Class of executed instruction
system.cpu.op_class::SimdShiftAcc                   0                       # Class of executed instruction
system.cpu.op_class::SimdDiv                        0                       # Class of executed instruction
system.cpu.op_class::SimdSqrt                       0                       # Class of executed instruction
system.cpu.op_class::SimdFloatAdd                   0                       # Class of executed instruction
system.cpu.op_class::SimdFloatAlu                   0                       # Class of executed instruction
system.cpu.op_class::SimdFloatCmp                   0                       # Class of executed instruction
system.cpu.op_class::SimdFloatCvt                   0                       # Class of executed instruction
system.cpu.op_class::SimdFloatDiv                   0                       # Class of executed instruction
system.cpu.op_class::SimdFloatMisc                  0                       # Class of executed instruction
system.cpu.op_class::SimdFloatMult                  0                       # Class of executed instruction
system.cpu.op_class::SimdFloatMultAcc               0                       # Class of executed instruction
system.cpu.op_class::SimdFloatSqrt                  0                       # Class of executed instruction
system.cpu.op_class::SimdReduceAdd                  0                       # Class of executed instruction
system.cpu.op_class::SimdReduceAlu                  0                       # Class of executed instruction
system.cpu.op_class::SimdReduceCmp                  0                       # Class of executed instruction
system.cpu.op_class::SimdFloatReduceAdd             0                       # Class of executed instruction
system.cpu.op_class::SimdFloatReduceCmp             0                       # Class of executed instruction
system.cpu.op_class::SimdAes                        0                       # Class of executed instruction
system.cpu.op_class::SimdAesMix                     0                       # Class of executed instruction
system.cpu.op_class::SimdSha1Hash                   0                       # Class of executed instruction
system.cpu.op_class::SimdSha1Hash2                  0                       # Class of executed instruction
system.cpu.op_class::SimdSha256Hash                 0                       # Class of executed instruction
system.cpu.op_class::SimdSha256Hash2                0                       # Class of executed instruction
system.cpu.op_class::SimdShaSigma2                  0                       # Class of executed instruction
system.cpu.op_class::SimdShaSigma3                  0                       # Class of executed instruction
system.cpu.op_class::SimdPredAlu                    0                       # Class of executed instruction
system.cpu.op_class::MemRead                        0                       # Class of executed instruction
system.cpu.op_class::MemWrite                       0                       # Class of executed instruction
system.cpu.op_class::FloatMemRead                   0                       # Class of executed instruction
system.cpu.op_class::FloatMemWrite                  0                       # Class of executed instruction
system.cpu.op_class::IprAccess                      0                       # Class of executed instruction
system.cpu.op_class::InstPrefetch                   0                       # Class of executed instruction
system.cpu.op_class::total                          0                       # Class of executed instruction
system.cpu.workload.numSyscalls                    44                       # Number of system calls
system.membus.snoop_filter.hit_multi_requests            0                       # Number of requests hitting in the snoop filter with multiple (>1) holders of the requested data.
system.membus.snoop_filter.hit_multi_snoops            0                       # Number of snoops hitting in the snoop filter with multiple (>1) holders of the requested data.
system.membus.snoop_filter.hit_single_requests        26780                       # Number of requests hitting in the snoop filter with a single holder of the requested data.
system.membus.snoop_filter.hit_single_snoops            0                       # Number of snoops hitting in the snoop filter with a single holder of the requested data.
system.membus.snoop_filter.tot_requests         55500                       # Total number of requests made to the snoop filter.
system.membus.snoop_filter.tot_snoops               0                       # Total number of snoops made to the snoop filter.
system.switch_cpus.cc_regfile_reads           7456253                       # number of cc regfile reads
system.switch_cpus.cc_regfile_writes          4499427                       # number of cc regfile writes
system.switch_cpus.committedInsts             5628199                       # Number of Instructions Simulated
system.switch_cpus.committedOps              10786153                       # Number of Ops (including micro ops) Simulated
system.switch_cpus.cpi                       1.377710                       # CPI: Cycles Per Instruction
system.switch_cpus.cpi_total                 1.377710                       # CPI: Total CPI of All Threads
system.switch_cpus.fp_regfile_reads            807348                       # number of floating regfile reads
system.switch_cpus.fp_regfile_writes           456738                       # number of floating regfile writes
system.switch_cpus.idleCycles                  571944                       # Total number of cycles that the CPU has spent unscheduled due to idling
system.switch_cpus.iew.branchMispredicts       199915                       # Number of branch mispredicts detected at execute
system.switch_cpus.iew.exec_branches          1395723                       # Number of branches executed
system.switch_cpus.iew.exec_nop                     0                       # number of nop insts executed
system.switch_cpus.iew.exec_rate             1.842698                       # Inst execution rate
system.switch_cpus.iew.exec_refs              2686405                       # number of memory reference insts executed
system.switch_cpus.iew.exec_stores             861262                       # Number of stores executed
system.switch_cpus.iew.exec_swp                     0                       # number of swp insts executed
system.switch_cpus.iew.iewBlockCycles         1355353                       # Number of cycles IEW is blocking
system.switch_cpus.iew.iewDispLoadInsts       2043928                       # Number of dispatched load instructions
system.switch_cpus.iew.iewDispNonSpecInsts         1271                       # Number of dispatched non-speculative instructions
system.switch_cpus.iew.iewDispSquashedInsts        27160                       # Number of squashed instructions skipped by dispatch
system.switch_cpus.iew.iewDispStoreInsts       994803                       # Number of dispatched store instructions
system.switch_cpus.iew.iewDispatchedInsts     16298585                       # Number of instructions dispatched to IQ
system.switch_cpus.iew.iewExecLoadInsts       1825143                       # Number of load instructions executed
system.switch_cpus.iew.iewExecSquashedInsts       340932                       # Number of squashed instructions skipped in execute
system.switch_cpus.iew.iewExecutedInsts      14288333                       # Number of executed instructions
system.switch_cpus.iew.iewIQFullEvents           9976                       # Number of times the IQ has become full, causing a stall
system.switch_cpus.iew.iewIdleCycles                0                       # Number of cycles IEW is idle
system.switch_cpus.iew.iewLSQFullEvents        116568                       # Number of times the LSQ has become full, causing a stall
system.switch_cpus.iew.iewSquashCycles         156852                       # Number of cycles IEW is squashing
system.switch_cpus.iew.iewUnblockCycles        130747                       # Number of cycles IEW is unblocking
system.switch_cpus.iew.memOrderViolationEvents          906                       # Number of memory order violations
system.switch_cpus.iew.predictedNotTakenIncorrect       131023                       # Number of branches that were predicted not taken incorrectly
system.switch_cpus.iew.predictedTakenIncorrect        68892                       # Number of branches that were predicted taken incorrectly
system.switch_cpus.iew.wb_consumers          17296199                       # num instructions consuming a value
system.switch_cpus.iew.wb_count              14081465                       # cumulative count of insts written-back
system.switch_cpus.iew.wb_fanout             0.586506                       # average fanout of values written-back
system.switch_cpus.iew.wb_producers          10144323                       # num instructions producing a value
system.switch_cpus.iew.wb_rate               1.816020                       # insts written-back per cycle
system.switch_cpus.iew.wb_sent               14166711                       # cumulative count of insts sent to commit
system.switch_cpus.int_regfile_reads         20129030                       # number of integer regfile reads
system.switch_cpus.int_regfile_writes        11060503                       # number of integer regfile writes
system.switch_cpus.ipc                       0.725842                       # IPC: Instructions Per Cycle
system.switch_cpus.ipc_total                 0.725842                       # IPC: Total IPC of All Threads
system.switch_cpus.iq.FU_type_0::No_OpClass       534650      3.65%      3.65% # Type of FU issued
system.switch_cpus.iq.FU_type_0::IntAlu      10901559     74.52%     78.17% # Type of FU issued
system.switch_cpus.iq.FU_type_0::IntMult        12164      0.08%     78.26% # Type of FU issued
system.switch_cpus.iq.FU_type_0::IntDiv         29387      0.20%     78.46% # Type of FU issued
system.switch_cpus.iq.FU_type_0::FloatAdd        23543      0.16%     78.62% # Type of FU issued
system.switch_cpus.iq.FU_type_0::FloatCmp            0      0.00%     78.62% # Type of FU issued
system.switch_cpus.iq.FU_type_0::FloatCvt         1941      0.01%     78.63% # Type of FU issued
system.switch_cpus.iq.FU_type_0::FloatMult            0      0.00%     78.63% # Type of FU issued
system.switch_cpus.iq.FU_type_0::FloatMultAcc            0      0.00%     78.63% # Type of FU issued
system.switch_cpus.iq.FU_type_0::FloatDiv            0      0.00%     78.63% # Type of FU issued
system.switch_cpus.iq.FU_type_0::FloatMisc            0      0.00%     78.63% # Type of FU issued
system.switch_cpus.iq.FU_type_0::FloatSqrt            0      0.00%     78.63% # Type of FU issued
system.switch_cpus.iq.FU_type_0::SimdAdd        12133      0.08%     78.71% # Type of FU issued
system.switch_cpus.iq.FU_type_0::SimdAddAcc            0      0.00%     78.71% # Type of FU issued
system.switch_cpus.iq.FU_type_0::SimdAlu        96968      0.66%     79.38% # Type of FU issued
system.switch_cpus.iq.FU_type_0::SimdCmp         3635      0.02%     79.40% # Type of FU issued
system.switch_cpus.iq.FU_type_0::SimdCvt        91511      0.63%     80.03% # Type of FU issued
system.switch_cpus.iq.FU_type_0::SimdMisc       116106      0.79%     80.82% # Type of FU issued
system.switch_cpus.iq.FU_type_0::SimdMult            0      0.00%     80.82% # Type of FU issued
system.switch_cpus.iq.FU_type_0::SimdMultAcc            0      0.00%     80.82% # Type of FU issued
system.switch_cpus.iq.FU_type_0::SimdShift         8676      0.06%     80.88% # Type of FU issued
system.switch_cpus.iq.FU_type_0::SimdShiftAcc            0      0.00%     80.88% # Type of FU issued
system.switch_cpus.iq.FU_type_0::SimdDiv            0      0.00%     80.88% # Type of FU issued
system.switch_cpus.iq.FU_type_0::SimdSqrt            0      0.00%     80.88% # Type of FU issued
system.switch_cpus.iq.FU_type_0::SimdFloatAdd           15      0.00%     80.88% # Type of FU issued
system.switch_cpus.iq.FU_type_0::SimdFloatAlu            0      0.00%     80.88% # Type of FU issued
system.switch_cpus.iq.FU_type_0::SimdFloatCmp            0      0.00%     80.88% # Type of FU issued
system.switch_cpus.iq.FU_type_0::SimdFloatCvt           60      0.00%     80.88% # Type of FU issued
system.switch_cpus.iq.FU_type_0::SimdFloatDiv           32      0.00%     80.88% # Type of FU issued
system.switch_cpus.iq.FU_type_0::SimdFloatMisc            0      0.00%     80.88% # Type of FU issued
system.switch_cpus.iq.FU_type_0::SimdFloatMult           15      0.00%     80.88% # Type of FU issued
system.switch_cpus.iq.FU_type_0::SimdFloatMultAcc            0      0.00%     80.88% # Type of FU issued
system.switch_cpus.iq.FU_type_0::SimdFloatSqrt            0      0.00%     80.88% # Type of FU issued
system.switch_cpus.iq.FU_type_0::SimdReduceAdd            0      0.00%     80.88% # Type of FU issued
system.switch_cpus.iq.FU_type_0::SimdReduceAlu            0      0.00%     80.88% # Type of FU issued
system.switch_cpus.iq.FU_type_0::SimdReduceCmp            0      0.00%     80.88% # Type of FU issued
system.switch_cpus.iq.FU_type_0::SimdFloatReduceAdd            0      0.00%     80.88% # Type of FU issued
system.switch_cpus.iq.FU_type_0::SimdFloatReduceCmp            0      0.00%     80.88% # Type of FU issued
system.switch_cpus.iq.FU_type_0::SimdAes            0      0.00%     80.88% # Type of FU issued
system.switch_cpus.iq.FU_type_0::SimdAesMix            0      0.00%     80.88% # Type of FU issued
system.switch_cpus.iq.FU_type_0::SimdSha1Hash            0      0.00%     80.88% # Type of FU issued
system.switch_cpus.iq.FU_type_0::SimdSha1Hash2            0      0.00%     80.88% # Type of FU issued
system.switch_cpus.iq.FU_type_0::SimdSha256Hash            0      0.00%     80.88% # Type of FU issued
system.switch_cpus.iq.FU_type_0::SimdSha256Hash2            0      0.00%     80.88% # Type of FU issued
system.switch_cpus.iq.FU_type_0::SimdShaSigma2            0      0.00%     80.88% # Type of FU issued
system.switch_cpus.iq.FU_type_0::SimdShaSigma3            0      0.00%     80.88% # Type of FU issued
system.switch_cpus.iq.FU_type_0::SimdPredAlu            0      0.00%     80.88% # Type of FU issued
system.switch_cpus.iq.FU_type_0::MemRead      1726935     11.80%     92.69% # Type of FU issued
system.switch_cpus.iq.FU_type_0::MemWrite       826525      5.65%     98.34% # Type of FU issued
system.switch_cpus.iq.FU_type_0::FloatMemRead       178588      1.22%     99.56% # Type of FU issued
system.switch_cpus.iq.FU_type_0::FloatMemWrite        64822      0.44%    100.00% # Type of FU issued
system.switch_cpus.iq.FU_type_0::IprAccess            0      0.00%    100.00% # Type of FU issued
system.switch_cpus.iq.FU_type_0::InstPrefetch            0      0.00%    100.00% # Type of FU issued
system.switch_cpus.iq.FU_type_0::total       14629265                       # Type of FU issued
system.switch_cpus.iq.fp_alu_accesses          656581                       # Number of floating point alu accesses
system.switch_cpus.iq.fp_inst_queue_reads      1292919                       # Number of floating instruction queue reads
system.switch_cpus.iq.fp_inst_queue_wakeup_accesses       565987                       # Number of floating instruction queue wakeup accesses
system.switch_cpus.iq.fp_inst_queue_writes      1082640                       # Number of floating instruction queue writes
system.switch_cpus.iq.fu_busy_cnt              236049                       # FU busy when requested
system.switch_cpus.iq.fu_busy_rate           0.016135                       # FU busy rate (busy events/executed inst)
system.switch_cpus.iq.fu_full::No_OpClass            0      0.00%      0.00% # attempts to use FU when none available
system.switch_cpus.iq.fu_full::IntAlu          179228     75.93%     75.93% # attempts to use FU when none available
system.switch_cpus.iq.fu_full::IntMult              0      0.00%     75.93% # attempts to use FU when none available
system.switch_cpus.iq.fu_full::IntDiv               0      0.00%     75.93% # attempts to use FU when none available
system.switch_cpus.iq.fu_full::FloatAdd             0      0.00%     75.93% # attempts to use FU when none available
system.switch_cpus.iq.fu_full::FloatCmp             0      0.00%     75.93% # attempts to use FU when none available
system.switch_cpus.iq.fu_full::FloatCvt             6      0.00%     75.93% # attempts to use FU when none available
system.switch_cpus.iq.fu_full::FloatMult            0      0.00%     75.93% # attempts to use FU when none available
system.switch_cpus.iq.fu_full::FloatMultAcc            0      0.00%     75.93% # attempts to use FU when none available
system.switch_cpus.iq.fu_full::FloatDiv             0      0.00%     75.93% # attempts to use FU when none available
system.switch_cpus.iq.fu_full::FloatMisc            0      0.00%     75.93% # attempts to use FU when none available
system.switch_cpus.iq.fu_full::FloatSqrt            0      0.00%     75.93% # attempts to use FU when none available
system.switch_cpus.iq.fu_full::SimdAdd              5      0.00%     75.93% # attempts to use FU when none available
system.switch_cpus.iq.fu_full::SimdAddAcc            0      0.00%     75.93% # attempts to use FU when none available
system.switch_cpus.iq.fu_full::SimdAlu           4376      1.85%     77.79% # attempts to use FU when none available
system.switch_cpus.iq.fu_full::SimdCmp             10      0.00%     77.79% # attempts to use FU when none available
system.switch_cpus.iq.fu_full::SimdCvt           2944      1.25%     79.04% # attempts to use FU when none available
system.switch_cpus.iq.fu_full::SimdMisc          2669      1.13%     80.17% # attempts to use FU when none available
system.switch_cpus.iq.fu_full::SimdMult             0      0.00%     80.17% # attempts to use FU when none available
system.switch_cpus.iq.fu_full::SimdMultAcc            0      0.00%     80.17% # attempts to use FU when none available
system.switch_cpus.iq.fu_full::SimdShift          292      0.12%     80.29% # attempts to use FU when none available
system.switch_cpus.iq.fu_full::SimdShiftAcc            0      0.00%     80.29% # attempts to use FU when none available
system.switch_cpus.iq.fu_full::SimdDiv              0      0.00%     80.29% # attempts to use FU when none available
system.switch_cpus.iq.fu_full::SimdSqrt             0      0.00%     80.29% # attempts to use FU when none available
system.switch_cpus.iq.fu_full::SimdFloatAdd            0      0.00%     80.29% # attempts to use FU when none available
system.switch_cpus.iq.fu_full::SimdFloatAlu            0      0.00%     80.29% # attempts to use FU when none available
system.switch_cpus.iq.fu_full::SimdFloatCmp            0      0.00%     80.29% # attempts to use FU when none available
system.switch_cpus.iq.fu_full::SimdFloatCvt            0      0.00%     80.29% # attempts to use FU when none available
system.switch_cpus.iq.fu_full::SimdFloatDiv            0      0.00%     80.29% # attempts to use FU when none available
system.switch_cpus.iq.fu_full::SimdFloatMisc            0      0.00%     80.29% # attempts to use FU when none available
system.switch_cpus.iq.fu_full::SimdFloatMult            0      0.00%     80.29% # attempts to use FU when none available
system.switch_cpus.iq.fu_full::SimdFloatMultAcc            0      0.00%     80.29% # attempts to use FU when none available
system.switch_cpus.iq.fu_full::SimdFloatSqrt            0      0.00%     80.29% # attempts to use FU when none available
system.switch_cpus.iq.fu_full::SimdReduceAdd            0      0.00%     80.29% # attempts to use FU when none available
system.switch_cpus.iq.fu_full::SimdReduceAlu            0      0.00%     80.29% # attempts to use FU when none available
system.switch_cpus.iq.fu_full::SimdReduceCmp            0      0.00%     80.29% # attempts to use FU when none available
system.switch_cpus.iq.fu_full::SimdFloatReduceAdd            0      0.00%     80.29% # attempts to use FU when none available
system.switch_cpus.iq.fu_full::SimdFloatReduceCmp            0      0.00%     80.29% # attempts to use FU when none available
system.switch_cpus.iq.fu_full::SimdAes              0      0.00%     80.29% # attempts to use FU when none available
system.switch_cpus.iq.fu_full::SimdAesMix            0      0.00%     80.29% # attempts to use FU when none available
system.switch_cpus.iq.fu_full::SimdSha1Hash            0      0.00%     80.29% # attempts to use FU when none available
system.switch_cpus.iq.fu_full::SimdSha1Hash2            0      0.00%     80.29% # attempts to use FU when none available
system.switch_cpus.iq.fu_full::SimdSha256Hash            0      0.00%     80.29% # attempts to use FU when none available
system.switch_cpus.iq.fu_full::SimdSha256Hash2            0      0.00%     80.29% # attempts to use FU when none available
system.switch_cpus.iq.fu_full::SimdShaSigma2            0      0.00%     80.29% # attempts to use FU when none available
system.switch_cpus.iq.fu_full::SimdShaSigma3            0      0.00%     80.29% # attempts to use FU when none available
system.switch_cpus.iq.fu_full::SimdPredAlu            0      0.00%     80.29% # attempts to use FU when none available
system.switch_cpus.iq.fu_full::MemRead          15325      6.49%     86.78% # attempts to use FU when none available
system.switch_cpus.iq.fu_full::MemWrite         13177      5.58%     92.37% # attempts to use FU when none available
system.switch_cpus.iq.fu_full::FloatMemRead        13135      5.56%     97.93% # attempts to use FU when none available
system.switch_cpus.iq.fu_full::FloatMemWrite         4882      2.07%    100.00% # attempts to use FU when none available
system.switch_cpus.iq.fu_full::IprAccess            0      0.00%    100.00% # attempts to use FU when none available
system.switch_cpus.iq.fu_full::InstPrefetch            0      0.00%    100.00% # attempts to use FU when none available
system.switch_cpus.iq.int_alu_accesses       13674083                       # Number of integer alu accesses
system.switch_cpus.iq.int_inst_queue_reads     35421014                       # Number of integer instruction queue reads
system.switch_cpus.iq.int_inst_queue_wakeup_accesses     13515478                       # Number of integer instruction queue wakeup accesses
system.switch_cpus.iq.int_inst_queue_writes     20729199                       # Number of integer instruction queue writes
system.switch_cpus.iq.iqInstsAdded           16296276                       # Number of instructions added to the IQ (excludes non-spec)
system.switch_cpus.iq.iqInstsIssued          14629265                       # Number of instructions issued
system.switch_cpus.iq.iqNonSpecInstsAdded         2309                       # Number of non-speculative instructions added to the IQ
system.switch_cpus.iq.iqSquashedInstsExamined      5512426                       # Number of squashed instructions iterated over during squash; mainly for profiling
system.switch_cpus.iq.iqSquashedInstsIssued        37271                       # Number of squashed instructions issued
system.switch_cpus.iq.iqSquashedNonSpecRemoved         1155                       # Number of squashed non-spec instructions that were removed
system.switch_cpus.iq.iqSquashedOperandsExamined      7076608                       # Number of squashed operands that are examined and possibly removed from graph
system.switch_cpus.iq.issued_per_cycle::samples      7182083                       # Number of insts issued each cycle
system.switch_cpus.iq.issued_per_cycle::mean     2.036911                       # Number of insts issued each cycle
system.switch_cpus.iq.issued_per_cycle::stdev     2.442868                       # Number of insts issued each cycle
system.switch_cpus.iq.issued_per_cycle::underflows            0      0.00%      0.00% # Number of insts issued each cycle
system.switch_cpus.iq.issued_per_cycle::0      3450967     48.05%     48.05% # Number of insts issued each cycle
system.switch_cpus.iq.issued_per_cycle::1       500717      6.97%     55.02% # Number of insts issued each cycle
system.switch_cpus.iq.issued_per_cycle::2       594410      8.28%     63.30% # Number of insts issued each cycle
system.switch_cpus.iq.issued_per_cycle::3       616964      8.59%     71.89% # Number of insts issued each cycle
system.switch_cpus.iq.issued_per_cycle::4       579275      8.07%     79.95% # Number of insts issued each cycle
system.switch_cpus.iq.issued_per_cycle::5       508468      7.08%     87.03% # Number of insts issued each cycle
system.switch_cpus.iq.issued_per_cycle::6       479022      6.67%     93.70% # Number of insts issued each cycle
system.switch_cpus.iq.issued_per_cycle::7       262816      3.66%     97.36% # Number of insts issued each cycle
system.switch_cpus.iq.issued_per_cycle::8       189444      2.64%    100.00% # Number of insts issued each cycle
system.switch_cpus.iq.issued_per_cycle::overflows            0      0.00%    100.00% # Number of insts issued each cycle
system.switch_cpus.iq.issued_per_cycle::min_value            0                       # Number of insts issued each cycle
system.switch_cpus.iq.issued_per_cycle::max_value            8                       # Number of insts issued each cycle
system.switch_cpus.iq.issued_per_cycle::total      7182083                       # Number of insts issued each cycle
system.switch_cpus.iq.rate                   1.886667                       # Inst issue rate
system.switch_cpus.iq.vec_alu_accesses              0                       # Number of vector alu accesses
system.switch_cpus.iq.vec_inst_queue_reads            0                       # Number of vector instruction queue reads
system.switch_cpus.iq.vec_inst_queue_wakeup_accesses            0                       # Number of vector instruction queue wakeup accesses
system.switch_cpus.iq.vec_inst_queue_writes            0                       # Number of vector instruction queue writes
system.switch_cpus.memDep0.conflictingLoads        66163                       # Number of conflicting loads.
system.switch_cpus.memDep0.conflictingStores        63955                       # Number of conflicting stores.
system.switch_cpus.memDep0.insertedLoads      2043928                       # Number of loads inserted to the mem dependence unit.
system.switch_cpus.memDep0.insertedStores       994803                       # Number of stores inserted to the mem dependence unit.
system.switch_cpus.misc_regfile_reads         5738299                       # number of misc regfile reads
system.switch_cpus.misc_regfile_writes            999                       # number of misc regfile writes
system.switch_cpus.numCycles                  7754027                       # number of cpu cycles simulated
system.switch_cpus.numWorkItemsCompleted            0                       # number of work items this cpu completed
system.switch_cpus.numWorkItemsStarted              0                       # number of work items this cpu started
system.switch_cpus.timesIdled                    8238                       # Number of times that the entire CPU went into an idle state and unscheduled itself
system.tol2bus.snoop_filter.hit_multi_requests          129                       # Number of requests hitting in the snoop filter with multiple (>1) holders of the requested data.
system.tol2bus.snoop_filter.hit_multi_snoops            0                       # Number of snoops hitting in the snoop filter with multiple (>1) holders of the requested data.
system.tol2bus.snoop_filter.hit_single_requests        56501                       # Number of requests hitting in the snoop filter with a single holder of the requested data.
system.tol2bus.snoop_filter.hit_single_snoops         1239                       # Number of snoops hitting in the snoop filter with a single holder of the requested data.
system.tol2bus.snoop_filter.tot_requests       113371                       # Total number of requests made to the snoop filter.
system.tol2bus.snoop_filter.tot_snoops           1239                       # Total number of snoops made to the snoop filter.
system.clk_domain.clock                          1000                       # Clock period in ticks
system.cpu.branchPred.lookups                       0                       # Number of BP lookups
system.cpu.branchPred.condPredicted                 0                       # Number of conditional branches predicted
system.cpu.branchPred.condIncorrect                 0                       # Number of conditional branches incorrect
system.cpu.branchPred.BTBLookups                    0                       # Number of BTB lookups
system.cpu.branchPred.BTBHits                       0                       # Number of BTB hits
system.cpu.branchPred.BTBHitPct                   nan                       # BTB Hit Percentage
system.cpu.branchPred.RASUsed                       0                       # Number of times the RAS was used to get a target.
system.cpu.branchPred.RASIncorrect                  0                       # Number of incorrect RAS predictions.
system.cpu.branchPred.indirectLookups               0                       # Number of indirect predictor lookups.
system.cpu.branchPred.indirectHits                  0                       # Number of indirect target hits.
system.cpu.branchPred.indirectMisses                0                       # Number of indirect misses.
system.cpu.branchPred.indirectMispredicted            0                       # Number of mispredicted indirect branches.
system.cpu.dcache.demand_hits::.switch_cpus.data      2243951                       # number of demand (read+write) hits
system.cpu.dcache.demand_hits::total          2243951                       # number of demand (read+write) hits
system.cpu.dcache.overall_hits::.switch_cpus.data      2247086                       # number of overall hits
system.cpu.dcache.overall_hits::total         2247086                       # number of overall hits
system.cpu.dcache.demand_misses::.switch_cpus.data        99093                       # number of demand (read+write) misses
system.cpu.dcache.demand_misses::total          99093                       # number of demand (read+write) misses
system.cpu.dcache.overall_misses::.switch_cpus.data        99146                       # number of overall misses
system.cpu.dcache.overall_misses::total         99146                       # number of overall misses
system.cpu.dcache.demand_miss_latency::.switch_cpus.data   5909692498                       # number of demand (read+write) miss cycles
system.cpu.dcache.demand_miss_latency::total   5909692498                       # number of demand (read+write) miss cycles
system.cpu.dcache.overall_miss_latency::.switch_cpus.data   5909692498                       # number of overall miss cycles
system.cpu.dcache.overall_miss_latency::total   5909692498                       # number of overall miss cycles
system.cpu.dcache.demand_accesses::.switch_cpus.data      2343044                       # number of demand (read+write) accesses
system.cpu.dcache.demand_accesses::total      2343044                       # number of demand (read+write) accesses
system.cpu.dcache.overall_accesses::.switch_cpus.data      2346232                       # number of overall (read+write) accesses
system.cpu.dcache.overall_accesses::total      2346232                       # number of overall (read+write) accesses
system.cpu.dcache.demand_miss_rate::.switch_cpus.data     0.042292                       # miss rate for demand accesses
system.cpu.dcache.demand_miss_rate::total     0.042292                       # miss rate for demand accesses
system.cpu.dcache.overall_miss_rate::.switch_cpus.data     0.042258                       # miss rate for overall accesses
system.cpu.dcache.overall_miss_rate::total     0.042258                       # miss rate for overall accesses
system.cpu.dcache.demand_avg_miss_latency::.switch_cpus.data 59637.840191                       # average overall miss latency
system.cpu.dcache.demand_avg_miss_latency::total 59637.840191                       # average overall miss latency
system.cpu.dcache.overall_avg_miss_latency::.switch_cpus.data 59605.959877                       # average overall miss latency
system.cpu.dcache.overall_avg_miss_latency::total 59605.959877                       # average overall miss latency
system.cpu.dcache.blocked_cycles::no_mshrs       191521                       # number of cycles access was blocked
system.cpu.dcache.blocked_cycles::no_targets          441                       # number of cycles access was blocked
system.cpu.dcache.blocked::no_mshrs              2804                       # number of cycles access was blocked
system.cpu.dcache.blocked::no_targets               5                       # number of cycles access was blocked
system.cpu.dcache.avg_blocked_cycles::no_mshrs    68.302782                       # average number of cycles each access was blocked
system.cpu.dcache.avg_blocked_cycles::no_targets    88.200000                       # average number of cycles each access was blocked
system.cpu.dcache.writebacks::.writebacks        13996                       # number of writebacks
system.cpu.dcache.writebacks::total             13996                       # number of writebacks
system.cpu.dcache.demand_mshr_hits::.switch_cpus.data        66605                       # number of demand (read+write) MSHR hits
system.cpu.dcache.demand_mshr_hits::total        66605                       # number of demand (read+write) MSHR hits
system.cpu.dcache.overall_mshr_hits::.switch_cpus.data        66605                       # number of overall MSHR hits
system.cpu.dcache.overall_mshr_hits::total        66605                       # number of overall MSHR hits
system.cpu.dcache.demand_mshr_misses::.switch_cpus.data        32488                       # number of demand (read+write) MSHR misses
system.cpu.dcache.demand_mshr_misses::total        32488                       # number of demand (read+write) MSHR misses
system.cpu.dcache.overall_mshr_misses::.switch_cpus.data        32510                       # number of overall MSHR misses
system.cpu.dcache.overall_mshr_misses::total        32510                       # number of overall MSHR misses
system.cpu.dcache.demand_mshr_miss_latency::.switch_cpus.data   1919164498                       # number of demand (read+write) MSHR miss cycles
system.cpu.dcache.demand_mshr_miss_latency::total   1919164498                       # number of demand (read+write) MSHR miss cycles
system.cpu.dcache.overall_mshr_miss_latency::.switch_cpus.data   1920402498                       # number of overall MSHR miss cycles
system.cpu.dcache.overall_mshr_miss_latency::total   1920402498                       # number of overall MSHR miss cycles
system.cpu.dcache.demand_mshr_miss_rate::.switch_cpus.data     0.013866                       # mshr miss rate for demand accesses
system.cpu.dcache.demand_mshr_miss_rate::total     0.013866                       # mshr miss rate for demand accesses
system.cpu.dcache.overall_mshr_miss_rate::.switch_cpus.data     0.013856                       # mshr miss rate for overall accesses
system.cpu.dcache.overall_mshr_miss_rate::total     0.013856                       # mshr miss rate for overall accesses
system.cpu.dcache.demand_avg_mshr_miss_latency::.switch_cpus.data 59073.026902                       # average overall mshr miss latency
system.cpu.dcache.demand_avg_mshr_miss_latency::total 59073.026902                       # average overall mshr miss latency
system.cpu.dcache.overall_avg_mshr_miss_latency::.switch_cpus.data 59071.131898                       # average overall mshr miss latency
system.cpu.dcache.overall_avg_mshr_miss_latency::total 59071.131898                       # average overall mshr miss latency
system.cpu.dcache.replacements                  32486                       # number of replacements
system.cpu.dcache.ReadReq_hits::.switch_cpus.data      1563778                       # number of ReadReq hits
system.cpu.dcache.ReadReq_hits::total         1563778                       # number of ReadReq hits
system.cpu.dcache.ReadReq_misses::.switch_cpus.data        91158                       # number of ReadReq misses
system.cpu.dcache.ReadReq_misses::total         91158                       # number of ReadReq misses
system.cpu.dcache.ReadReq_miss_latency::.switch_cpus.data   5348845000                       # number of ReadReq miss cycles
system.cpu.dcache.ReadReq_miss_latency::total   5348845000                       # number of ReadReq miss cycles
system.cpu.dcache.ReadReq_accesses::.switch_cpus.data      1654936                       # number of ReadReq accesses(hits+misses)
system.cpu.dcache.ReadReq_accesses::total      1654936                       # number of ReadReq accesses(hits+misses)
system.cpu.dcache.ReadReq_miss_rate::.switch_cpus.data     0.055082                       # miss rate for ReadReq accesses
system.cpu.dcache.ReadReq_miss_rate::total     0.055082                       # miss rate for ReadReq accesses
system.cpu.dcache.ReadReq_avg_miss_latency::.switch_cpus.data 58676.638364                       # average ReadReq miss latency
system.cpu.dcache.ReadReq_avg_miss_latency::total 58676.638364                       # average ReadReq miss latency
system.cpu.dcache.ReadReq_mshr_hits::.switch_cpus.data        66589                       # number of ReadReq MSHR hits
system.cpu.dcache.ReadReq_mshr_hits::total        66589                       # number of ReadReq MSHR hits
system.cpu.dcache.ReadReq_mshr_misses::.switch_cpus.data        24569                       # number of ReadReq MSHR misses
system.cpu.dcache.ReadReq_mshr_misses::total        24569                       # number of ReadReq MSHR misses
system.cpu.dcache.ReadReq_mshr_miss_latency::.switch_cpus.data   1366905000                       # number of ReadReq MSHR miss cycles
system.cpu.dcache.ReadReq_mshr_miss_latency::total   1366905000                       # number of ReadReq MSHR miss cycles
system.cpu.dcache.ReadReq_mshr_miss_rate::.switch_cpus.data     0.014846                       # mshr miss rate for ReadReq accesses
system.cpu.dcache.ReadReq_mshr_miss_rate::total     0.014846                       # mshr miss rate for ReadReq accesses
system.cpu.dcache.ReadReq_avg_mshr_miss_latency::.switch_cpus.data 55635.353494                       # average ReadReq mshr miss latency
system.cpu.dcache.ReadReq_avg_mshr_miss_latency::total 55635.353494                       # average ReadReq mshr miss latency
system.cpu.dcache.WriteReq_hits::.switch_cpus.data       680173                       # number of WriteReq hits
system.cpu.dcache.WriteReq_hits::total         680173                       # number of WriteReq hits
system.cpu.dcache.WriteReq_misses::.switch_cpus.data         7935                       # number of WriteReq misses
system.cpu.dcache.WriteReq_misses::total         7935                       # number of WriteReq misses
system.cpu.dcache.WriteReq_miss_latency::.switch_cpus.data    560847498                       # number of WriteReq miss cycles
system.cpu.dcache.WriteReq_miss_latency::total    560847498                       # number of WriteReq miss cycles
system.cpu.dcache.WriteReq_accesses::.switch_cpus.data       688108                       # number of WriteReq accesses(hits+misses)
system.cpu.dcache.WriteReq_accesses::total       688108                       # number of WriteReq accesses(hits+misses)
system.cpu.dcache.WriteReq_miss_rate::.switch_cpus.data     0.011532                       # miss rate for WriteReq accesses
system.cpu.dcache.WriteReq_miss_rate::total     0.011532                       # miss rate for WriteReq accesses
system.cpu.dcache.WriteReq_avg_miss_latency::.switch_cpus.data 70680.213989                       # average WriteReq miss latency
system.cpu.dcache.WriteReq_avg_miss_latency::total 70680.213989                       # average WriteReq miss latency
system.cpu.dcache.WriteReq_mshr_hits::.switch_cpus.data           16                       # number of WriteReq MSHR hits
system.cpu.dcache.WriteReq_mshr_hits::total           16                       # number of WriteReq MSHR hits
system.cpu.dcache.WriteReq_mshr_misses::.switch_cpus.data         7919                       # number of WriteReq MSHR misses
system.cpu.dcache.WriteReq_mshr_misses::total         7919                       # number of WriteReq MSHR misses
system.cpu.dcache.WriteReq_mshr_miss_latency::.switch_cpus.data    552259498                       # number of WriteReq MSHR miss cycles
system.cpu.dcache.WriteReq_mshr_miss_latency::total    552259498                       # number of WriteReq MSHR miss cycles
system.cpu.dcache.WriteReq_mshr_miss_rate::.switch_cpus.data     0.011508                       # mshr miss rate for WriteReq accesses
system.cpu.dcache.WriteReq_mshr_miss_rate::total     0.011508                       # mshr miss rate for WriteReq accesses
system.cpu.dcache.WriteReq_avg_mshr_miss_latency::.switch_cpus.data 69738.539967                       # average WriteReq mshr miss latency
system.cpu.dcache.WriteReq_avg_mshr_miss_latency::total 69738.539967                       # average WriteReq mshr miss latency
system.cpu.dcache.SoftPFReq_hits::.switch_cpus.data         3135                       # number of SoftPFReq hits
system.cpu.dcache.SoftPFReq_hits::total          3135                       # number of SoftPFReq hits
system.cpu.dcache.SoftPFReq_misses::.switch_cpus.data           53                       # number of SoftPFReq misses
system.cpu.dcache.SoftPFReq_misses::total           53                       # number of SoftPFReq misses
system.cpu.dcache.SoftPFReq_accesses::.switch_cpus.data         3188                       # number of SoftPFReq accesses(hits+misses)
system.cpu.dcache.SoftPFReq_accesses::total         3188                       # number of SoftPFReq accesses(hits+misses)
system.cpu.dcache.SoftPFReq_miss_rate::.switch_cpus.data     0.016625                       # miss rate for SoftPFReq accesses
system.cpu.dcache.SoftPFReq_miss_rate::total     0.016625                       # miss rate for SoftPFReq accesses
system.cpu.dcache.SoftPFReq_mshr_misses::.switch_cpus.data           22                       # number of SoftPFReq MSHR misses
system.cpu.dcache.SoftPFReq_mshr_misses::total           22                       # number of SoftPFReq MSHR misses
system.cpu.dcache.SoftPFReq_mshr_miss_latency::.switch_cpus.data      1238000                       # number of SoftPFReq MSHR miss cycles
system.cpu.dcache.SoftPFReq_mshr_miss_latency::total      1238000                       # number of SoftPFReq MSHR miss cycles
system.cpu.dcache.SoftPFReq_mshr_miss_rate::.switch_cpus.data     0.006901                       # mshr miss rate for SoftPFReq accesses
system.cpu.dcache.SoftPFReq_mshr_miss_rate::total     0.006901                       # mshr miss rate for SoftPFReq accesses
system.cpu.dcache.SoftPFReq_avg_mshr_miss_latency::.switch_cpus.data 56272.727273                       # average SoftPFReq mshr miss latency
system.cpu.dcache.SoftPFReq_avg_mshr_miss_latency::total 56272.727273                       # average SoftPFReq mshr miss latency
system.cpu.dcache.power_state.pwrStateResidencyTicks::UNDEFINED   4927561000                       # Cumulative time (in ticks) in various power states
system.cpu.dcache.tags.tagsinuse                 1024                       # Cycle average of tags in use
system.cpu.dcache.tags.total_refs             2494811                       # Total number of references to valid blocks.
system.cpu.dcache.tags.sampled_refs             33510                       # Sample count of references to valid blocks.
system.cpu.dcache.tags.avg_refs             74.449746                       # Average number of references to valid blocks.
system.cpu.dcache.tags.warmup_cycle                 0                       # Cycle when the warmup percentage was hit.
system.cpu.dcache.tags.occ_blocks::.cpu.data    24.845183                       # Average occupied blocks per requestor
system.cpu.dcache.tags.occ_blocks::.switch_cpus.data   999.154817                       # Average occupied blocks per requestor
system.cpu.dcache.tags.occ_percent::.cpu.data     0.024263                       # Average percentage of cache occupancy
system.cpu.dcache.tags.occ_percent::.switch_cpus.data     0.975737                       # Average percentage of cache occupancy
system.cpu.dcache.tags.occ_percent::total            1                       # Average percentage of cache occupancy
system.cpu.dcache.tags.occ_task_id_blocks::1024         1024                       # Occupied blocks per task id
system.cpu.dcache.tags.age_task_id_blocks_1024::0           85                       # Occupied blocks per task id
system.cpu.dcache.tags.age_task_id_blocks_1024::1          781                       # Occupied blocks per task id
system.cpu.dcache.tags.age_task_id_blocks_1024::2          154                       # Occupied blocks per task id
system.cpu.dcache.tags.age_task_id_blocks_1024::3            4                       # Occupied blocks per task id
system.cpu.dcache.tags.occ_task_id_percent::1024            1                       # Percentage of cache occupancy per task id
system.cpu.dcache.tags.tag_accesses           4724950                       # Number of tag accesses
system.cpu.dcache.tags.data_accesses          4724950                       # Number of data accesses
system.cpu.dcache.tags.power_state.pwrStateResidencyTicks::UNDEFINED   4927561000                       # Cumulative time (in ticks) in various power states
system.cpu.dtb.rdAccesses                           0                       # TLB accesses on read requests
system.cpu.dtb.wrAccesses                           0                       # TLB accesses on write requests
system.cpu.dtb.rdMisses                             0                       # TLB misses on read requests
system.cpu.dtb.wrMisses                             0                       # TLB misses on write requests
system.cpu.dtb.walker.power_state.pwrStateResidencyTicks::UNDEFINED   4927561000                       # Cumulative time (in ticks) in various power states
system.cpu.dtb_walker_cache.blocked_cycles::no_mshrs            0                       # number of cycles access was blocked
system.cpu.dtb_walker_cache.blocked_cycles::no_targets            0                       # number of cycles access was blocked
system.cpu.dtb_walker_cache.blocked::no_mshrs            0                       # number of cycles access was blocked
system.cpu.dtb_walker_cache.blocked::no_targets            0                       # number of cycles access was blocked
system.cpu.dtb_walker_cache.avg_blocked_cycles::no_mshrs          nan                       # average number of cycles each access was blocked
system.cpu.dtb_walker_cache.avg_blocked_cycles::no_targets          nan                       # average number of cycles each access was blocked
system.cpu.dtb_walker_cache.replacements            0                       # number of replacements
system.cpu.dtb_walker_cache.power_state.pwrStateResidencyTicks::UNDEFINED   4927561000                       # Cumulative time (in ticks) in various power states
system.cpu.dtb_walker_cache.tags.tagsinuse            0                       # Cycle average of tags in use
system.cpu.dtb_walker_cache.tags.total_refs            0                       # Total number of references to valid blocks.
system.cpu.dtb_walker_cache.tags.sampled_refs            0                       # Sample count of references to valid blocks.
system.cpu.dtb_walker_cache.tags.avg_refs          nan                       # Average number of references to valid blocks.
system.cpu.dtb_walker_cache.tags.warmup_cycle            0                       # Cycle when the warmup percentage was hit.
system.cpu.dtb_walker_cache.tags.tag_accesses            0                       # Number of tag accesses
system.cpu.dtb_walker_cache.tags.data_accesses            0                       # Number of data accesses
system.cpu.dtb_walker_cache.tags.power_state.pwrStateResidencyTicks::UNDEFINED   4927561000                       # Cumulative time (in ticks) in various power states
system.cpu.icache.demand_hits::.switch_cpus.inst      1384175                       # number of demand (read+write) hits
system.cpu.icache.demand_hits::total          1384175                       # number of demand (read+write) hits
system.cpu.icache.overall_hits::.switch_cpus.inst      1384175                       # number of overall hits
system.cpu.icache.overall_hits::total         1384175                       # number of overall hits
system.cpu.icache.demand_misses::.switch_cpus.inst        28347                       # number of demand (read+write) misses
system.cpu.icache.demand_misses::total          28347                       # number of demand (read+write) misses
system.cpu.icache.overall_misses::.switch_cpus.inst        28347                       # number of overall misses
system.cpu.icache.overall_misses::total         28347                       # number of overall misses
system.cpu.icache.demand_miss_latency::.switch_cpus.inst    983940500                       # number of demand (read+write) miss cycles
system.cpu.icache.demand_miss_latency::total    983940500                       # number of demand (read+write) miss cycles
system.cpu.icache.overall_miss_latency::.switch_cpus.inst    983940500                       # number of overall miss cycles
system.cpu.icache.overall_miss_latency::total    983940500                       # number of overall miss cycles
system.cpu.icache.demand_accesses::.switch_cpus.inst      1412522                       # number of demand (read+write) accesses
system.cpu.icache.demand_accesses::total      1412522                       # number of demand (read+write) accesses
system.cpu.icache.overall_accesses::.switch_cpus.inst      1412522                       # number of overall (read+write) accesses
system.cpu.icache.overall_accesses::total      1412522                       # number of overall (read+write) accesses
system.cpu.icache.demand_miss_rate::.switch_cpus.inst     0.020068                       # miss rate for demand accesses
system.cpu.icache.demand_miss_rate::total     0.020068                       # miss rate for demand accesses
system.cpu.icache.overall_miss_rate::.switch_cpus.inst     0.020068                       # miss rate for overall accesses
system.cpu.icache.overall_miss_rate::total     0.020068                       # miss rate for overall accesses
system.cpu.icache.demand_avg_miss_latency::.switch_cpus.inst 34710.569020                       # average overall miss latency
system.cpu.icache.demand_avg_miss_latency::total 34710.569020                       # average overall miss latency
system.cpu.icache.overall_avg_miss_latency::.switch_cpus.inst 34710.569020                       # average overall miss latency
system.cpu.icache.overall_avg_miss_latency::total 34710.569020                       # average overall miss latency
system.cpu.icache.blocked_cycles::no_mshrs         2601                       # number of cycles access was blocked
system.cpu.icache.blocked_cycles::no_targets            0                       # number of cycles access was blocked
system.cpu.icache.blocked::no_mshrs                50                       # number of cycles access was blocked
system.cpu.icache.blocked::no_targets               0                       # number of cycles access was blocked
system.cpu.icache.avg_blocked_cycles::no_mshrs    52.020000                       # average number of cycles each access was blocked
system.cpu.icache.avg_blocked_cycles::no_targets          nan                       # average number of cycles each access was blocked
system.cpu.icache.writebacks::.writebacks        24003                       # number of writebacks
system.cpu.icache.writebacks::total             24003                       # number of writebacks
system.cpu.icache.demand_mshr_hits::.switch_cpus.inst         3975                       # number of demand (read+write) MSHR hits
system.cpu.icache.demand_mshr_hits::total         3975                       # number of demand (read+write) MSHR hits
system.cpu.icache.overall_mshr_hits::.switch_cpus.inst         3975                       # number of overall MSHR hits
system.cpu.icache.overall_mshr_hits::total         3975                       # number of overall MSHR hits
system.cpu.icache.demand_mshr_misses::.switch_cpus.inst        24372                       # number of demand (read+write) MSHR misses
system.cpu.icache.demand_mshr_misses::total        24372                       # number of demand (read+write) MSHR misses
system.cpu.icache.overall_mshr_misses::.switch_cpus.inst        24372                       # number of overall MSHR misses
system.cpu.icache.overall_mshr_misses::total        24372                       # number of overall MSHR misses
system.cpu.icache.demand_mshr_miss_latency::.switch_cpus.inst    802369000                       # number of demand (read+write) MSHR miss cycles
system.cpu.icache.demand_mshr_miss_latency::total    802369000                       # number of demand (read+write) MSHR miss cycles
system.cpu.icache.overall_mshr_miss_latency::.switch_cpus.inst    802369000                       # number of overall MSHR miss cycles
system.cpu.icache.overall_mshr_miss_latency::total    802369000                       # number of overall MSHR miss cycles
system.cpu.icache.demand_mshr_miss_rate::.switch_cpus.inst     0.017254                       # mshr miss rate for demand accesses
system.cpu.icache.demand_mshr_miss_rate::total     0.017254                       # mshr miss rate for demand accesses
system.cpu.icache.overall_mshr_miss_rate::.switch_cpus.inst     0.017254                       # mshr miss rate for overall accesses
system.cpu.icache.overall_mshr_miss_rate::total     0.017254                       # mshr miss rate for overall accesses
system.cpu.icache.demand_avg_mshr_miss_latency::.switch_cpus.inst 32921.754472                       # average overall mshr miss latency
system.cpu.icache.demand_avg_mshr_miss_latency::total 32921.754472                       # average overall mshr miss latency
system.cpu.icache.overall_avg_mshr_miss_latency::.switch_cpus.inst 32921.754472                       # average overall mshr miss latency
system.cpu.icache.overall_avg_mshr_miss_latency::total 32921.754472                       # average overall mshr miss latency
system.cpu.icache.replacements                  24003                       # number of replacements
system.cpu.icache.ReadReq_hits::.switch_cpus.inst      1384175                       # number of ReadReq hits
system.cpu.icache.ReadReq_hits::total         1384175                       # number of ReadReq hits
system.cpu.icache.ReadReq_misses::.switch_cpus.inst        28347                       # number of ReadReq misses
system.cpu.icache.ReadReq_misses::total         28347                       # number of ReadReq misses
system.cpu.icache.ReadReq_miss_latency::.switch_cpus.inst    983940500                       # number of ReadReq miss cycles
system.cpu.icache.ReadReq_miss_latency::total    983940500                       # number of ReadReq miss cycles
system.cpu.icache.ReadReq_accesses::.switch_cpus.inst      1412522                       # number of ReadReq accesses(hits+misses)
system.cpu.icache.ReadReq_accesses::total      1412522                       # number of ReadReq accesses(hits+misses)
system.cpu.icache.ReadReq_miss_rate::.switch_cpus.inst     0.020068                       # miss rate for ReadReq accesses
system.cpu.icache.ReadReq_miss_rate::total     0.020068                       # miss rate for ReadReq accesses
system.cpu.icache.ReadReq_avg_miss_latency::.switch_cpus.inst 34710.569020                       # average ReadReq miss latency
system.cpu.icache.ReadReq_avg_miss_latency::total 34710.569020                       # average ReadReq miss latency
system.cpu.icache.ReadReq_mshr_hits::.switch_cpus.inst         3975                       # number of ReadReq MSHR hits
system.cpu.icache.ReadReq_mshr_hits::total         3975                       # number of ReadReq MSHR hits
system.cpu.icache.ReadReq_mshr_misses::.switch_cpus.inst        24372                       # number of ReadReq MSHR misses
system.cpu.icache.ReadReq_mshr_misses::total        24372                       # number of ReadReq MSHR misses
system.cpu.icache.ReadReq_mshr_miss_latency::.switch_cpus.inst    802369000                       # number of ReadReq MSHR miss cycles
system.cpu.icache.ReadReq_mshr_miss_latency::total    802369000                       # number of ReadReq MSHR miss cycles
system.cpu.icache.ReadReq_mshr_miss_rate::.switch_cpus.inst     0.017254                       # mshr miss rate for ReadReq accesses
system.cpu.icache.ReadReq_mshr_miss_rate::total     0.017254                       # mshr miss rate for ReadReq accesses
system.cpu.icache.ReadReq_avg_mshr_miss_latency::.switch_cpus.inst 32921.754472                       # average ReadReq mshr miss latency
system.cpu.icache.ReadReq_avg_mshr_miss_latency::total 32921.754472                       # average ReadReq mshr miss latency
system.cpu.icache.power_state.pwrStateResidencyTicks::UNDEFINED   4927561000                       # Cumulative time (in ticks) in various power states
system.cpu.icache.tags.tagsinuse           940.124529                       # Cycle average of tags in use
system.cpu.icache.tags.total_refs             2742116                       # Total number of references to valid blocks.
system.cpu.icache.tags.sampled_refs             25047                       # Sample count of references to valid blocks.
system.cpu.icache.tags.avg_refs            109.478820                       # Average number of references to valid blocks.
system.cpu.icache.tags.warmup_cycle                 0                       # Cycle when the warmup percentage was hit.
system.cpu.icache.tags.occ_blocks::.cpu.inst   198.671501                       # Average occupied blocks per requestor
system.cpu.icache.tags.occ_blocks::.switch_cpus.inst   741.453028                       # Average occupied blocks per requestor
system.cpu.icache.tags.occ_percent::.cpu.inst     0.194015                       # Average percentage of cache occupancy
system.cpu.icache.tags.occ_percent::.switch_cpus.inst     0.724075                       # Average percentage of cache occupancy
system.cpu.icache.tags.occ_percent::total     0.918090                       # Average percentage of cache occupancy
system.cpu.icache.tags.occ_task_id_blocks::1024         1021                       # Occupied blocks per task id
system.cpu.icache.tags.age_task_id_blocks_1024::0           86                       # Occupied blocks per task id
system.cpu.icache.tags.age_task_id_blocks_1024::1          214                       # Occupied blocks per task id
system.cpu.icache.tags.age_task_id_blocks_1024::2          702                       # Occupied blocks per task id
system.cpu.icache.tags.age_task_id_blocks_1024::3           19                       # Occupied blocks per task id
system.cpu.icache.tags.occ_task_id_percent::1024     0.997070                       # Percentage of cache occupancy per task id
system.cpu.icache.tags.tag_accesses           2849415                       # Number of tag accesses
system.cpu.icache.tags.data_accesses          2849415                       # Number of data accesses
system.cpu.icache.tags.power_state.pwrStateResidencyTicks::UNDEFINED   4927561000                       # Cumulative time (in ticks) in various power states
system.cpu.interrupts.clk_domain.clock           8000                       # Clock period in ticks
system.cpu.itb.rdAccesses                           0                       # TLB accesses on read requests
system.cpu.itb.wrAccesses                           0                       # TLB accesses on write requests
system.cpu.itb.rdMisses                             0                       # TLB misses on read requests
system.cpu.itb.wrMisses                             0                       # TLB misses on write requests
system.cpu.itb.walker.power_state.pwrStateResidencyTicks::UNDEFINED   4927561000                       # Cumulative time (in ticks) in various power states
system.cpu.itb_walker_cache.blocked_cycles::no_mshrs            0                       # number of cycles access was blocked
system.cpu.itb_walker_cache.blocked_cycles::no_targets            0                       # number of cycles access was blocked
system.cpu.itb_walker_cache.blocked::no_mshrs            0                       # number of cycles access was blocked
system.cpu.itb_walker_cache.blocked::no_targets            0                       # number of cycles access was blocked
system.cpu.itb_walker_cache.avg_blocked_cycles::no_mshrs          nan                       # average number of cycles each access was blocked
system.cpu.itb_walker_cache.avg_blocked_cycles::no_targets          nan                       # average number of cycles each access was blocked
system.cpu.itb_walker_cache.replacements            0                       # number of replacements
system.cpu.itb_walker_cache.power_state.pwrStateResidencyTicks::UNDEFINED   4927561000                       # Cumulative time (in ticks) in various power states
system.cpu.itb_walker_cache.tags.tagsinuse            0                       # Cycle average of tags in use
system.cpu.itb_walker_cache.tags.total_refs            0                       # Total number of references to valid blocks.
system.cpu.itb_walker_cache.tags.sampled_refs            0                       # Sample count of references to valid blocks.
system.cpu.itb_walker_cache.tags.avg_refs          nan                       # Average number of references to valid blocks.
system.cpu.itb_walker_cache.tags.warmup_cycle            0                       # Cycle when the warmup percentage was hit.
system.cpu.itb_walker_cache.tags.tag_accesses            0                       # Number of tag accesses
system.cpu.itb_walker_cache.tags.data_accesses            0                       # Number of data accesses
system.cpu.itb_walker_cache.tags.power_state.pwrStateResidencyTicks::UNDEFINED   4927561000                       # Cumulative time (in ticks) in various power states
system.cpu.power_state.pwrStateResidencyTicks::OFF   3877013500                       # Cumulative time (in ticks) in various power states
system.cpu.thread_0.numInsts                        0                       # Number of Instructions committed
system.cpu.thread_0.numOps                          0                       # Number of Ops committed
system.cpu.thread_0.numMemRefs                      0                       # Number of Memory References
system.cpu_clk_domain.clock                       500                       # Clock period in ticks
system.cpu_voltage_domain.voltage                   1                       # Voltage in Volts
system.l2.demand_hits::.switch_cpus.inst        17124                       # number of demand (read+write) hits
system.l2.demand_hits::.switch_cpus.data        10964                       # number of demand (read+write) hits
system.l2.demand_hits::total                    28088                       # number of demand (read+write) hits
system.l2.overall_hits::.switch_cpus.inst        17124                       # number of overall hits
system.l2.overall_hits::.switch_cpus.data        10964                       # number of overall hits
system.l2.overall_hits::total                   28088                       # number of overall hits
system.l2.demand_misses::.switch_cpus.inst         7202                       # number of demand (read+write) misses
system.l2.demand_misses::.switch_cpus.data        21522                       # number of demand (read+write) misses
system.l2.demand_misses::total                  28724                       # number of demand (read+write) misses
system.l2.overall_misses::.switch_cpus.inst         7202                       # number of overall misses
system.l2.overall_misses::.switch_cpus.data        21522                       # number of overall misses
system.l2.overall_misses::total                 28724                       # number of overall misses
system.l2.demand_miss_latency::.switch_cpus.inst    584430000                       # number of demand (read+write) miss cycles
system.l2.demand_miss_latency::.switch_cpus.data   1754733500                       # number of demand (read+write) miss cycles
system.l2.demand_miss_latency::total       2339163500                       # number of demand (read+write) miss cycles
system.l2.overall_miss_latency::.switch_cpus.inst    584430000                       # number of overall miss cycles
system.l2.overall_miss_latency::.switch_cpus.data   1754733500                       # number of overall miss cycles
system.l2.overall_miss_latency::total      2339163500                       # number of overall miss cycles
system.l2.demand_accesses::.switch_cpus.inst        24326                       # number of demand (read+write) accesses
system.l2.demand_accesses::.switch_cpus.data        32486                       # number of demand (read+write) accesses
system.l2.demand_accesses::total                56812                       # number of demand (read+write) accesses
system.l2.overall_accesses::.switch_cpus.inst        24326                       # number of overall (read+write) accesses
system.l2.overall_accesses::.switch_cpus.data        32486                       # number of overall (read+write) accesses
system.l2.overall_accesses::total               56812                       # number of overall (read+write) accesses
system.l2.demand_miss_rate::.switch_cpus.inst     0.296062                       # miss rate for demand accesses
system.l2.demand_miss_rate::.switch_cpus.data     0.662501                       # miss rate for demand accesses
system.l2.demand_miss_rate::total            0.505597                       # miss rate for demand accesses
system.l2.overall_miss_rate::.switch_cpus.inst     0.296062                       # miss rate for overall accesses
system.l2.overall_miss_rate::.switch_cpus.data     0.662501                       # miss rate for overall accesses
system.l2.overall_miss_rate::total           0.505597                       # miss rate for overall accesses
system.l2.demand_avg_miss_latency::.switch_cpus.inst 81148.292141                       # average overall miss latency
system.l2.demand_avg_miss_latency::.switch_cpus.data 81532.083449                       # average overall miss latency
system.l2.demand_avg_miss_latency::total 81435.855034                       # average overall miss latency
system.l2.overall_avg_miss_latency::.switch_cpus.inst 81148.292141                       # average overall miss latency
system.l2.overall_avg_miss_latency::.switch_cpus.data 81532.083449                       # average overall miss latency
system.l2.overall_avg_miss_latency::total 81435.855034                       # average overall miss latency
system.l2.blocked_cycles::no_mshrs                  0                       # number of cycles access was blocked
system.l2.blocked_cycles::no_targets                0                       # number of cycles access was blocked
system.l2.blocked::no_mshrs                         0                       # number of cycles access was blocked
system.l2.blocked::no_targets                       0                       # number of cycles access was blocked
system.l2.avg_blocked_cycles::no_mshrs            nan                       # average number of cycles each access was blocked
system.l2.avg_blocked_cycles::no_targets          nan                       # average number of cycles each access was blocked
system.l2.writebacks::.writebacks                6475                       # number of writebacks
system.l2.writebacks::total                      6475                       # number of writebacks
system.l2.demand_mshr_hits::.switch_cpus.inst            2                       # number of demand (read+write) MSHR hits
system.l2.demand_mshr_hits::.switch_cpus.data            1                       # number of demand (read+write) MSHR hits
system.l2.demand_mshr_hits::total                   3                       # number of demand (read+write) MSHR hits
system.l2.overall_mshr_hits::.switch_cpus.inst            2                       # number of overall MSHR hits
system.l2.overall_mshr_hits::.switch_cpus.data            1                       # number of overall MSHR hits
system.l2.overall_mshr_hits::total                  3                       # number of overall MSHR hits
system.l2.demand_mshr_misses::.switch_cpus.inst         7200                       # number of demand (read+write) MSHR misses
system.l2.demand_mshr_misses::.switch_cpus.data        21521                       # number of demand (read+write) MSHR misses
system.l2.demand_mshr_misses::total             28721                       # number of demand (read+write) MSHR misses
system.l2.overall_mshr_misses::.switch_cpus.inst         7200                       # number of overall MSHR misses
system.l2.overall_mshr_misses::.switch_cpus.data        21521                       # number of overall MSHR misses
system.l2.overall_mshr_misses::total            28721                       # number of overall MSHR misses
system.l2.demand_mshr_miss_latency::.switch_cpus.inst    512291500                       # number of demand (read+write) MSHR miss cycles
system.l2.demand_mshr_miss_latency::.switch_cpus.data   1539456500                       # number of demand (read+write) MSHR miss cycles
system.l2.demand_mshr_miss_latency::total   2051748000                       # number of demand (read+write) MSHR miss cycles
system.l2.overall_mshr_miss_latency::.switch_cpus.inst    512291500                       # number of overall MSHR miss cycles
system.l2.overall_mshr_miss_latency::.switch_cpus.data   1539456500                       # number of overall MSHR miss cycles
system.l2.overall_mshr_miss_latency::total   2051748000                       # number of overall MSHR miss cycles
system.l2.demand_mshr_miss_rate::.switch_cpus.inst     0.295980                       # mshr miss rate for demand accesses
system.l2.demand_mshr_miss_rate::.switch_cpus.data     0.662470                       # mshr miss rate for demand accesses
system.l2.demand_mshr_miss_rate::total       0.505545                       # mshr miss rate for demand accesses
system.l2.overall_mshr_miss_rate::.switch_cpus.inst     0.295980                       # mshr miss rate for overall accesses
system.l2.overall_mshr_miss_rate::.switch_cpus.data     0.662470                       # mshr miss rate for overall accesses
system.l2.overall_mshr_miss_rate::total      0.505545                       # mshr miss rate for overall accesses
system.l2.demand_avg_mshr_miss_latency::.switch_cpus.inst 71151.597222                       # average overall mshr miss latency
system.l2.demand_avg_mshr_miss_latency::.switch_cpus.data 71532.758701                       # average overall mshr miss latency
system.l2.demand_avg_mshr_miss_latency::total 71437.206225                       # average overall mshr miss latency
system.l2.overall_avg_mshr_miss_latency::.switch_cpus.inst 71151.597222                       # average overall mshr miss latency
system.l2.overall_avg_mshr_miss_latency::.switch_cpus.data 71532.758701                       # average overall mshr miss latency
system.l2.overall_avg_mshr_miss_latency::total 71437.206225                       # average overall mshr miss latency
system.l2.replacements                          27976                       # number of replacements
system.l2.WritebackDirty_hits::.writebacks        13996                       # number of WritebackDirty hits
system.l2.WritebackDirty_hits::total            13996                       # number of WritebackDirty hits
system.l2.WritebackDirty_accesses::.writebacks        13996                       # number of WritebackDirty accesses(hits+misses)
system.l2.WritebackDirty_accesses::total        13996                       # number of WritebackDirty accesses(hits+misses)
system.l2.WritebackClean_hits::.writebacks        23962                       # number of WritebackClean hits
system.l2.WritebackClean_hits::total            23962                       # number of WritebackClean hits
system.l2.WritebackClean_accesses::.writebacks        23962                       # number of WritebackClean accesses(hits+misses)
system.l2.WritebackClean_accesses::total        23962                       # number of WritebackClean accesses(hits+misses)
system.l2.CleanEvict_mshr_misses::.writebacks           41                       # number of CleanEvict MSHR misses
system.l2.CleanEvict_mshr_misses::total            41                       # number of CleanEvict MSHR misses
system.l2.CleanEvict_mshr_miss_rate::.writebacks          inf                       # mshr miss rate for CleanEvict accesses
[...]
system.switch_cpus.commit.committedInstType_0::SimdCvt        72874      0.68%     80.69% # Class of committed instruction
system.switch_cpus.commit.committedInstType_0::SimdMisc       101351      0.94%     81.63% # Class of committed instruction
system.switch_cpus.commit.committedInstType_0::SimdMult            0      0.00%     81.63% # Class of committed instruction
system.switch_cpus.commit.committedInstType_0::SimdMultAcc            0      0.00%     81.63% # Class of committed instruction
system.switch_cpus.commit.committedInstType_0::SimdShift         2717      0.03%     81.66% # Class of committed instruction
system.switch_cpus.commit.committedInstType_0::SimdShiftAcc            0      0.00%     81.66% # Class of committed instruction
system.switch_cpus.commit.committedInstType_0::SimdDiv            0      0.00%     81.66% # Class of committed instruction
system.switch_cpus.commit.committedInstType_0::SimdSqrt            0      0.00%     81.66% # Class of committed instruction
system.switch_cpus.commit.committedInstType_0::SimdFloatAdd           11      0.00%     81.66% # Class of committed instruction
system.switch_cpus.commit.committedInstType_0::SimdFloatAlu            0      0.00%     81.66% # Class of committed instruction
system.switch_cpus.commit.committedInstType_0::SimdFloatCmp            0      0.00%     81.66% # Class of committed instruction
system.switch_cpus.commit.committedInstType_0::SimdFloatCvt           44      0.00%     81.66% # Class of committed instruction
system.switch_cpus.commit.committedInstType_0::SimdFloatDiv           30      0.00%     81.66% # Class of committed instruction
system.switch_cpus.commit.committedInstType_0::SimdFloatMisc            0      0.00%     81.66% # Class of committed instruction
system.switch_cpus.commit.committedInstType_0::SimdFloatMult            8      0.00%     81.66% # Class of committed instruction
system.switch_cpus.commit.committedInstType_0::SimdFloatMultAcc            0      0.00%     81.66% # Class of committed instruction
system.switch_cpus.commit.committedInstType_0::SimdFloatSqrt            0      0.00%     81.66% # Class of committed instruction
system.switch_cpus.commit.committedInstType_0::SimdReduceAdd            0      0.00%     81.66% # Class of committed instruction
system.switch_cpus.commit.committedInstType_0::SimdReduceAlu            0      0.00%     81.66% # Class of committed instruction
system.switch_cpus.commit.committedInstType_0::SimdReduceCmp            0      0.00%     81.66% # Class of committed instruction
system.switch_cpus.commit.committedInstType_0::SimdFloatReduceAdd            0      0.00%     81.66% # Class of committed instruction
system.switch_cpus.commit.committedInstType_0::SimdFloatReduceCmp            0      0.00%     81.66% # Class of committed instruction
system.switch_cpus.commit.committedInstType_0::SimdAes            0      0.00%     81.66% # Class of committed instruction
system.switch_cpus.commit.committedInstType_0::SimdAesMix            0      0.00%     81.66% # Class of committed instruction
system.switch_cpus.commit.committedInstType_0::SimdSha1Hash            0      0.00%     81.66% # Class of committed instruction
system.switch_cpus.commit.committedInstType_0::SimdSha1Hash2            0      0.00%     81.66% # Class of committed instruction
system.switch_cpus.commit.committedInstType_0::SimdSha256Hash            0      0.00%     81.66% # Class of committed instruction
system.switch_cpus.commit.committedInstType_0::SimdSha256Hash2            0      0.00%     81.66% # Class of committed instruction
system.switch_cpus.commit.committedInstType_0::SimdShaSigma2            0      0.00%     81.66% # Class of committed instruction
system.switch_cpus.commit.committedInstType_0::SimdShaSigma3            0      0.00%     81.66% # Class of committed instruction
system.switch_cpus.commit.committedInstType_0::SimdPredAlu            0      0.00%     81.66% # Class of committed instruction
system.switch_cpus.commit.committedInstType_0::MemRead      1198571     11.11%     92.77% # Class of committed instruction
system.switch_cpus.commit.committedInstType_0::MemWrite       645149      5.98%     98.75% # Class of committed instruction
system.switch_cpus.commit.committedInstType_0::FloatMemRead        92311      0.86%     99.61% # Class of committed instruction
system.switch_cpus.commit.committedInstType_0::FloatMemWrite        42292      0.39%    100.00% # Class of committed instruction
system.switch_cpus.commit.committedInstType_0::IprAccess            0      0.00%    100.00% # Class of committed instruction
system.switch_cpus.commit.committedInstType_0::InstPrefetch            0      0.00%    100.00% # Class of committed instruction
system.switch_cpus.commit.committedInstType_0::total     10786153                       # Class of committed instruction
system.switch_cpus.commit.commitEligibleSamples       579926                       # number cycles where commit BW limit reached
system.switch_cpus.decode.idleCycles          1721902                       # Number of cycles decode is idle
system.switch_cpus.decode.blockedCycles       2608897                       # Number of cycles decode is blocked
system.switch_cpus.decode.runCycles           2378405                       # Number of cycles decode is running
system.switch_cpus.decode.unblockCycles        316015                       # Number of cycles decode is unblocking
system.switch_cpus.decode.squashCycles         156852                       # Number of cycles decode is squashing
system.switch_cpus.decode.branchResolved       731681                       # Number of times decode resolved a  branch
system.switch_cpus.decode.branchMispred         15578                       # Number of times decode detected a branch misprediction
system.switch_cpus.decode.decodedInsts       18170131                       # Number of instructions handled by decode
system.switch_cpus.decode.squashedInsts         67287                       # Number of squashed instructions handled by decode
system.switch_cpus.dtb.rdAccesses             1823041                       # TLB accesses on read requests
system.switch_cpus.dtb.wrAccesses              861993                       # TLB accesses on write requests
system.switch_cpus.dtb.rdMisses                  3369                       # TLB misses on read requests
system.switch_cpus.dtb.wrMisses                  1262                       # TLB misses on write requests
system.switch_cpus.dtb.walker.power_state.pwrStateResidencyTicks::UNDEFINED   4927561000                       # Cumulative time (in ticks) in various power states
system.switch_cpus.fetch.icacheStallCycles      1955121                       # Number of cycles fetch is stalled on an Icache miss
system.switch_cpus.fetch.insts               10038255                       # Number of instructions fetch has processed
system.switch_cpus.fetch.branches             2114160                       # Number of branches that fetch encountered
system.switch_cpus.fetch.predictedBranches       977306                       # Number of branches that fetch has predicted taken
system.switch_cpus.fetch.cycles               4999997                       # Number of cycles fetch has run and was not squashing or blocked
system.switch_cpus.fetch.squashCycles          344010                       # Number of cycles fetch has spent squashing
system.switch_cpus.fetch.tlbCycles                  3                       # Number of cycles fetch has spent waiting for tlb
system.switch_cpus.fetch.miscStallCycles         6627                       # Number of cycles fetch has spent waiting on interrupts,or bad addresses, or out of MSHRs
system.switch_cpus.fetch.pendingTrapStallCycles        47669                       # Number of stall cycles due to pending traps
system.switch_cpus.fetch.pendingQuiesceStallCycles           27                       # Number of stall cycles due to pending quiesce instructions
system.switch_cpus.fetch.icacheWaitRetryStallCycles          634                       # Number of stall cycles due to full MSHR
system.switch_cpus.fetch.cacheLines           1412524                       # Number of cache lines fetched
system.switch_cpus.fetch.icacheSquashes         51833                       # Number of outstanding Icache misses that were squashed
system.switch_cpus.fetch.nisnDist::samples      7182083                       # Number of instructions fetched each cycle (Total)
system.switch_cpus.fetch.nisnDist::mean      2.693842                       # Number of instructions fetched each cycle (Total)
system.switch_cpus.fetch.nisnDist::stdev     3.441180                       # Number of instructions fetched each cycle (Total)
system.switch_cpus.fetch.nisnDist::underflows            0      0.00%      0.00% # Number of instructions fetched each cycle (Total)
system.switch_cpus.fetch.nisnDist::0          4104234     57.15%     57.15% # Number of instructions fetched each cycle (Total)
system.switch_cpus.fetch.nisnDist::1           136966      1.91%     59.05% # Number of instructions fetched each cycle (Total)
system.switch_cpus.fetch.nisnDist::2           148320      2.07%     61.12% # Number of instructions fetched each cycle (Total)
system.switch_cpus.fetch.nisnDist::3           157811      2.20%     63.31% # Number of instructions fetched each cycle (Total)
system.switch_cpus.fetch.nisnDist::4           361617      5.03%     68.35% # Number of instructions fetched each cycle (Total)
system.switch_cpus.fetch.nisnDist::5           211174      2.94%     71.29% # Number of instructions fetched each cycle (Total)
system.switch_cpus.fetch.nisnDist::6           175396      2.44%     73.73% # Number of instructions fetched each cycle (Total)
system.switch_cpus.fetch.nisnDist::7           206878      2.88%     76.61% # Number of instructions fetched each cycle (Total)
system.switch_cpus.fetch.nisnDist::8          1679687     23.39%    100.00% # Number of instructions fetched each cycle (Total)
system.switch_cpus.fetch.nisnDist::overflows            0      0.00%    100.00% # Number of instructions fetched each cycle (Total)
system.switch_cpus.fetch.nisnDist::min_value            0                       # Number of instructions fetched each cycle (Total)
system.switch_cpus.fetch.nisnDist::max_value            8                       # Number of instructions fetched each cycle (Total)
system.switch_cpus.fetch.nisnDist::total      7182083                       # Number of instructions fetched each cycle (Total)
system.switch_cpus.fetch.branchRate          0.272653                       # Number of branch fetches per cycle
system.switch_cpus.fetch.rate                1.294586                       # Number of inst fetches per cycle
system.switch_cpus.itb.rdAccesses                   0                       # TLB accesses on read requests
system.switch_cpus.itb.wrAccesses             1421013                       # TLB accesses on write requests
system.switch_cpus.itb.rdMisses                     0                       # TLB misses on read requests
system.switch_cpus.itb.wrMisses                  9951                       # TLB misses on write requests
system.switch_cpus.itb.walker.power_state.pwrStateResidencyTicks::UNDEFINED   4927561000                       # Cumulative time (in ticks) in various power states
system.switch_cpus.lsq0.forwLoads              160704                       # Number of loads that had data forwarded from stores
system.switch_cpus.lsq0.squashedLoads          753046                       # Number of loads squashed
system.switch_cpus.lsq0.ignoredResponses         2097                       # Number of memory responses ignored because the instruction is squashed
system.switch_cpus.lsq0.memOrderViolation          906                       # Number of memory ordering violations
system.switch_cpus.lsq0.squashedStores         307362                       # Number of stores squashed
system.switch_cpus.lsq0.rescheduledLoads         2823                       # Number of loads that were rescheduled
system.switch_cpus.lsq0.blockedByCache           2301                       # Number of times an access to memory failed due to the cache being blocked
system.switch_cpus.power_state.pwrStateResidencyTicks::OFF   4927561000                       # Cumulative time (in ticks) in various power states
system.switch_cpus.rename.squashCycles         156852                       # Number of cycles rename is squashing
system.switch_cpus.rename.idleCycles          1898981                       # Number of cycles rename is idle
system.switch_cpus.rename.blockCycles         1805342                       # Number of cycles rename is blocking
system.switch_cpus.rename.serializeStallCycles        16373                       # count of cycles rename stalledfor serializing inst
system.switch_cpus.rename.runCycles           2499451                       # Number of cycles rename is running
system.switch_cpus.rename.unblockCycles        805066                       # Number of cycles rename is unblocking
system.switch_cpus.rename.renamedInsts       17514889                       # Number of instructions processed by rename
system.switch_cpus.rename.ROBFullEvents         25606                       # Number of times rename has blocked due to ROB full
system.switch_cpus.rename.IQFullEvents         313704                       # Number of times rename has blocked due to IQ full
system.switch_cpus.rename.LQFullEvents          36679                       # Number of times rename has blocked due to LQ full
system.switch_cpus.rename.SQFullEvents         410369                       # Number of times rename has blocked due to SQ full
system.switch_cpus.rename.fullRegistersEvents           27                       # Number of times there has been no free registers
system.switch_cpus.rename.renamedOperands     19838015                       # Number of destination operands rename has renamed
system.switch_cpus.rename.lookups            43737378                       # Number of register rename lookups that rename has made
system.switch_cpus.rename.intLookups         25579679                       # Number of integer rename lookups
system.switch_cpus.rename.fpLookups           1146446                       # Number of floating rename lookups
system.switch_cpus.rename.committedMaps      12664975                       # Number of HB maps that are committed
system.switch_cpus.rename.undoneMaps          7173034                       # Number of HB maps that are undone due to squashing
system.switch_cpus.rename.serializing            1054                       # count of serializing insts renamed
system.switch_cpus.rename.tempSerializing         1050                       # count of temporary serializing insts renamed
system.switch_cpus.rename.skidInsts           1069661                       # count of insts added to the skid buffer
system.switch_cpus.rob.reads                 22067746                       # The number of ROB reads
system.switch_cpus.rob.writes                33341965                       # The number of ROB writes
system.switch_cpus.thread_0.numInsts          5628199                       # Number of Instructions committed
system.switch_cpus.thread_0.numOps           10786153                       # Number of Ops committed
system.switch_cpus.thread_0.numMemRefs              0                       # Number of Memory References
system.tol2bus.trans_dist::ReadResp             48960                       # Transaction distribution
system.tol2bus.trans_dist::WritebackDirty        20471                       # Transaction distribution
system.tol2bus.trans_dist::WritebackClean        24003                       # Transaction distribution
system.tol2bus.trans_dist::CleanEvict           39991                       # Transaction distribution
system.tol2bus.trans_dist::UpgradeReq              24                       # Transaction distribution
system.tol2bus.trans_dist::UpgradeResp             24                       # Transaction distribution
system.tol2bus.trans_dist::ReadExReq             7897                       # Transaction distribution
system.tol2bus.trans_dist::ReadExResp            7897                       # Transaction distribution
system.tol2bus.trans_dist::ReadCleanReq         24372                       # Transaction distribution
system.tol2bus.trans_dist::ReadSharedReq        24589                       # Transaction distribution
system.tol2bus.pkt_count_system.cpu.icache.mem_side_port::system.l2.cpu_side_port        72700                       # Packet count per connected requestor and responder (bytes)
system.tol2bus.pkt_count_system.cpu.dcache.mem_side_port::system.l2.cpu_side_port        97506                       # Packet count per connected requestor and responder (bytes)
system.tol2bus.pkt_count::total                170206                       # Packet count per connected requestor and responder (bytes)
system.tol2bus.pkt_size_system.cpu.icache.mem_side_port::system.l2.cpu_side_port      3092992                       # Cumulative packet size per connected requestor and responder (bytes)
system.tol2bus.pkt_size_system.cpu.dcache.mem_side_port::system.l2.cpu_side_port      2974848                       # Cumulative packet size per connected requestor and responder (bytes)
system.tol2bus.pkt_size::total                6067840                       # Cumulative packet size per connected requestor and responder (bytes)
system.tol2bus.snoops                           28022                       # Total snoops (count)
system.tol2bus.snoopTraffic                    417344                       # Total snoop traffic (bytes)
system.tol2bus.snoop_fanout::samples            84858                       # Request fanout histogram
system.tol2bus.snoop_fanout::mean            0.016239                       # Request fanout histogram
system.tol2bus.snoop_fanout::stdev           0.126394                       # Request fanout histogram
system.tol2bus.snoop_fanout::underflows             0      0.00%      0.00% # Request fanout histogram
system.tol2bus.snoop_fanout::0                  83480     98.38%     98.38% # Request fanout histogram
system.tol2bus.snoop_fanout::1                   1378      1.62%    100.00% # Request fanout histogram
system.tol2bus.snoop_fanout::2                      0      0.00%    100.00% # Request fanout histogram
system.tol2bus.snoop_fanout::3                      0      0.00%    100.00% # Request fanout histogram
system.tol2bus.snoop_fanout::4                      0      0.00%    100.00% # Request fanout histogram
system.tol2bus.snoop_fanout::overflows              0      0.00%    100.00% # Request fanout histogram
system.tol2bus.snoop_fanout::min_value              0                       # Request fanout histogram
system.tol2bus.snoop_fanout::max_value              1                       # Request fanout histogram
system.tol2bus.snoop_fanout::total              84858                       # Request fanout histogram
system.tol2bus.power_state.pwrStateResidencyTicks::UNDEFINED   4927561000                       # Cumulative time (in ticks) in various power states
system.tol2bus.reqLayer0.occupancy           94684500                       # Layer occupancy (ticks)
system.tol2bus.reqLayer0.utilization              2.4                       # Layer utilization (%)
system.tol2bus.respLayer0.occupancy          36567478                       # Layer occupancy (ticks)
system.tol2bus.respLayer0.utilization             0.9                       # Layer utilization (%)
system.tol2bus.respLayer1.occupancy          48746988                       # Layer occupancy (ticks)
system.tol2bus.respLayer1.utilization             1.3                       # Layer utilization (%)
system.voltage_domain.voltage                       1                       # Voltage in Volts

---------- End Simulation Statistics   ----------
