
---------- Begin Simulation Statistics ----------
final_tick                                 3877573000                       # Number of ticks from beginning of simulation (restored from checkpoints and never reset)
host_inst_rate                                 202016                       # Simulator instruction rate (inst/s)
host_mem_usage                                8612520                       # Number of bytes of host memory used
host_op_rate                                   353888                       # Simulator op (including micro ops) rate (op/s)
host_seconds                                    54.45                       # Real time elapsed on the host
host_tick_rate                               51217229                       # Simulator tick rate (ticks/s)
sim_freq                                 1000000000000                       # Frequency of simulated ticks
sim_insts                                    11000002                       # Number of instructions simulated
sim_ops                                      19269684                       # Number of ops (including micro ops) simulated
sim_seconds                                  0.002789                       # Number of seconds simulated
sim_ticks                                  2788848000                       # Number of ticks simulated
system.cpu.committedInsts                           0                       # Number of instructions committed
system.cpu.committedOps                             0                       # Number of ops (including micro ops) committed
system.cpu.idle_fraction                            0                       # Percentage of idle cycles
system.cpu.not_idle_fraction                        1                       # Percentage of non-idle cycles
system.cpu.numCycles                                0                       # number of cpu cycles simulated
system.cpu.numWorkItemsCompleted                    0                       # number of work items this cpu completed
system.cpu.numWorkItemsStarted                      0                       # number of work items this cpu started
system.cpu.num_busy_cycles                          0                       # Number of busy cycles
system.cpu.num_conditional_control_insts            0                       # number of instructions that are conditional controls
system.cpu.num_fp_alu_accesses                      0                       # Number of float alu accesses
system.cpu.num_fp_insts                             0                       # number of float instructions
system.cpu.num_fp_register_reads                    0                       # number of times the floating registers were read
system.cpu.num_fp_register_writes                   0                       # number of times the floating registers were written
system.cpu.num_func_calls                           0                       # number of times a function call or return occured
system.cpu.num_idle_cycles                          0                       # Number of idle cycles
system.cpu.num_int_alu_accesses                     0                       # Number of integer alu accesses
system.cpu.num_int_insts                            0                       # number of integer instructions
system.cpu.num_int_register_reads                   0                       # number of times the integer registers were read
system.cpu.num_int_register_writes                  0                       # number of times the integer registers were written
system.cpu.num_load_insts                           0                       # Number of load instructions
system.cpu.num_mem_refs                             0                       # number of memory refs
system.cpu.num_store_insts                          0                       # Number of store instructions
system.cpu.num_vec_alu_accesses                     0                       # Number of vector alu accesses
system.cpu.num_vec_insts                            0                       # number of vector instructions
system.cpu.num_vec_register_reads                   0                       # number of times the vector registers were read
system.cpu.num_vec_register_writes                  0                       # number of times the vector registers were written
system.cpu.op_class::No_OpClass                     0                       # Class of executed instruction
system.cpu.op_class::IntAlu                         0                       # Class of executed instruction
system.cpu.op_class::IntMult                        0                       # Class of executed instruction
system.cpu.op_class::IntDiv                         0                       # Class of executed instruction
system.cpu.op_class::FloatAdd                       0                       # Class of executed instruction
system.cpu.op_class::FloatCmp                       0                       # Class of executed instruction
system.cpu.op_class::FloatCvt                       0                       # Class of executed instruction
system.cpu.op_class::FloatMult                      0                       # Class of executed instruction
system.cpu.op_class::FloatMultAcc                   0                       # Class of executed instruction
system.cpu.op_class::FloatDiv                       0                       # Class of executed instruction
system.cpu.op_class::FloatMisc                      0                       # Class of executed instruction
system.cpu.op_class::FloatSqrt                      0                       # Class of executed instruction
system.cpu.op_class::SimdAdd                        0                       # Class of executed instruction
system.cpu.op_class::SimdAddAcc                     0                       # Class of executed instruction
system.cpu.op_class::SimdAlu                        0                       # Class of executed instruction
system.cpu.op_class::SimdCmp                        0                       # Class of executed instruction
system.cpu.op_class::SimdCvt                        0                       # Class of executed instruction
system.cpu.op_class::SimdMisc                       0                       # Class of executed instruction
system.cpu.op_class::SimdMult                       0                       # Class of executed instruction
system.cpu.op_class::SimdMultAcc                    0                       # Class of executed instruction
system.cpu.op_class::SimdShift                      0                       # Class of executed instruction
system.cpu.op_class::SimdShiftAcc                   0                       # Class of executed instruction
system.cpu.op_class::SimdDiv                        0                       # Class of executed instruction
system.cpu.op_class::SimdSqrt                       0                       # Class of executed instruction
system.cpu.op_class::SimdFloatAdd                   0                       # Class of executed instruction
system.cpu.op_class::SimdFloatAlu                   0                       # Class of executed instruction
system.cpu.op_class::SimdFloatCmp                   0                       # Class of executed instruction
system.cpu.op_class::SimdFloatCvt                   0                       # Class of executed instruction
system.cpu.op_class::SimdFloatDiv                   0                       # Class of executed instruction
system.cpu.op_class::SimdFloatMisc                  0                       # Class of executed instruction
system.cpu.op_class::SimdFloatMult                  0                       # Class of executed instruction
system.cpu.op_class::SimdFloatMultAcc               0                       # Class of executed instruction
system.cpu.op_class::SimdFloatSqrt                  0                       # Class of executed instruction
system.cpu.op_class::SimdReduceAdd                  0                       # Class of executed instruction
system.cpu.op_class::SimdReduceAlu                  0                       # Class of executed instruction
system.cpu.op_class::SimdReduceCmp                  0                       # Class of executed instruction
system.cpu.op_class::SimdFloatReduceAdd             0                       # Class of executed instruction
system.cpu.op_class::SimdFloatReduceCmp             0                       # Class of executed instruction
system.cpu.op_class::SimdAes                        0                       # Class of executed instruction
system.cpu.op_class::SimdAesMix                     0                       # Class of executed instruction
system.cpu.op_class::SimdSha1Hash                   0                       # Class of executed instruction
system.cpu.op_class::SimdSha1Hash2                  0                       # Class of executed instruction
system.cpu.op_class::SimdSha256Hash                 0                       # Class of executed instruction
system.cpu.op_class::SimdSha256Hash2                0                       # Class of executed instruction
system.cpu.op_class::SimdShaSigma2                  0                       # Class of executed instruction
system.cpu.op_class::SimdShaSigma3                  0                       # Class of executed instruction
system.cpu.op_class::SimdPredAlu                    0                       # Class of executed instruction
system.cpu.op_class::MemRead                        0                       # Class of executed instruction
system.cpu.op_class::MemWrite                       0                       # Class of executed instruction
system.cpu.op_class::FloatMemRead                   0                       # Class of executed instruction
system.cpu.op_class::FloatMemWrite                  0                       # Class of executed instruction
system.cpu.op_class::IprAccess                      0                       # Class of executed instruction
system.cpu.op_class::InstPrefetch                   0                       # Class of executed instruction
system.cpu.op_class::total                          0                       # Class of executed instruction
system.cpu.workload.numSyscalls                     0                       # Number of system calls
system.membus.snoop_filter.hit_multi_requests            0                       # Number of requests hitting in the snoop filter with multiple (>1) holders of the requested data.
system.membus.snoop_filter.hit_multi_snoops            0                       # Number of snoops hitting in the snoop filter with multiple (>1) holders of the requested data.
system.membus.snoop_filter.hit_single_requests          302                       # Number of requests hitting in the snoop filter with a single holder of the requested data.
system.membus.snoop_filter.hit_single_snoops            0                       # Number of snoops hitting in the snoop filter with a single holder of the requested data.
system.membus.snoop_filter.tot_requests          1148                       # Total number of requests made to the snoop filter.
system.membus.snoop_filter.tot_snoops               0                       # Total number of snoops made to the snoop filter.
system.switch_cpus.cc_regfile_reads          11617488                       # number of cc regfile reads
system.switch_cpus.cc_regfile_writes          9233189                       # number of cc regfile writes
system.switch_cpus.committedInsts            10000001                       # Number of Instructions Simulated
system.switch_cpus.committedOps              17415167                       # Number of Ops (including micro ops) Simulated
system.switch_cpus.cpi                       0.557770                       # CPI: Cycles Per Instruction
system.switch_cpus.cpi_total                 0.557770                       # CPI: Total CPI of All Threads
system.switch_cpus.fp_regfile_reads             42244                       # number of floating regfile reads
system.switch_cpus.fp_regfile_writes            48518                       # number of floating regfile writes
system.switch_cpus.idleCycles                   67525                       # Total number of cycles that the CPU has spent unscheduled due to idling
system.switch_cpus.iew.branchMispredicts        71703                       # Number of branch mispredicts detected at execute
system.switch_cpus.iew.exec_branches          1833274                       # Number of branches executed
system.switch_cpus.iew.exec_nop                     0                       # number of nop insts executed
system.switch_cpus.iew.exec_rate             3.356111                       # Inst execution rate
system.switch_cpus.iew.exec_refs              3427184                       # number of memory reference insts executed
system.switch_cpus.iew.exec_stores            1124716                       # Number of stores executed
system.switch_cpus.iew.exec_swp                     0                       # number of swp insts executed
system.switch_cpus.iew.iewBlockCycles          219960                       # Number of cycles IEW is blocking
system.switch_cpus.iew.iewDispLoadInsts       2379467                       # Number of dispatched load instructions
system.switch_cpus.iew.iewDispNonSpecInsts            0                       # Number of dispatched non-speculative instructions
system.switch_cpus.iew.iewDispSquashedInsts        40189                       # Number of squashed instructions skipped by dispatch
system.switch_cpus.iew.iewDispStoreInsts      1184842                       # Number of dispatched store instructions
system.switch_cpus.iew.iewDispatchedInsts     19460636                       # Number of instructions dispatched to IQ
system.switch_cpus.iew.iewExecLoadInsts       2302468                       # Number of load instructions executed
system.switch_cpus.iew.iewExecSquashedInsts       159316                       # Number of squashed instructions skipped in execute
system.switch_cpus.iew.iewExecutedInsts      18719367                       # Number of executed instructions
system.switch_cpus.iew.iewIQFullEvents              0                       # Number of times the IQ has become full, causing a stall
system.switch_cpus.iew.iewIdleCycles                0                       # Number of cycles IEW is idle
system.switch_cpus.iew.iewLSQFullEvents          1314                       # Number of times the LSQ has become full, causing a stall
system.switch_cpus.iew.iewSquashCycles          66577                       # Number of cycles IEW is squashing
system.switch_cpus.iew.iewUnblockCycles          1312                       # Number of cycles IEW is unblocking
system.switch_cpus.iew.memOrderViolationEvents         1750                       # Number of memory order violations
system.switch_cpus.iew.predictedNotTakenIncorrect        35379                       # Number of branches that were predicted not taken incorrectly
system.switch_cpus.iew.predictedTakenIncorrect        36324                       # Number of branches that were predicted taken incorrectly
system.switch_cpus.iew.wb_consumers          21163709                       # num instructions consuming a value
system.switch_cpus.iew.wb_count              18640431                       # cumulative count of insts written-back
system.switch_cpus.iew.wb_fanout             0.638045                       # average fanout of values written-back
system.switch_cpus.iew.wb_producers          13503404                       # num instructions producing a value
system.switch_cpus.iew.wb_rate               3.341959                       # insts written-back per cycle
system.switch_cpus.iew.wb_sent               18672522                       # cumulative count of insts sent to commit
system.switch_cpus.int_regfile_reads         28973470                       # number of integer regfile reads
system.switch_cpus.int_regfile_writes        15870849                       # number of integer regfile writes
system.switch_cpus.ipc                       1.792855                       # IPC: Instructions Per Cycle
system.switch_cpus.ipc_total                 1.792855                       # IPC: Total IPC of All Threads
system.switch_cpus.iq.FU_type_0::No_OpClass        38353      0.20%      0.20% # Type of FU issued
system.switch_cpus.iq.FU_type_0::IntAlu      15110916     80.04%     80.25% # Type of FU issued
system.switch_cpus.iq.FU_type_0::IntMult       248221      1.31%     81.56% # Type of FU issued
system.switch_cpus.iq.FU_type_0::IntDiv          2429      0.01%     81.57% # Type of FU issued
system.switch_cpus.iq.FU_type_0::FloatAdd          614      0.00%     81.58% # Type of FU issued
system.switch_cpus.iq.FU_type_0::FloatCmp            0      0.00%     81.58% # Type of FU issued
system.switch_cpus.iq.FU_type_0::FloatCvt            0      0.00%     81.58% # Type of FU issued
system.switch_cpus.iq.FU_type_0::FloatMult            0      0.00%     81.58% # Type of FU issued
system.switch_cpus.iq.FU_type_0::FloatMultAcc            0      0.00%     81.58% # Type of FU issued
system.switch_cpus.iq.FU_type_0::FloatDiv            0      0.00%     81.58% # Type of FU issued
system.switch_cpus.iq.FU_type_0::FloatMisc            0      0.00%     81.58% # Type of FU issued
system.switch_cpus.iq.FU_type_0::FloatSqrt            0      0.00%     81.58% # Type of FU issued
system.switch_cpus.iq.FU_type_0::SimdAdd            0      0.00%     81.58% # Type of FU issued
system.switch_cpus.iq.FU_type_0::SimdAddAcc            0      0.00%     81.58% # Type of FU issued
system.switch_cpus.iq.FU_type_0::SimdAlu           80      0.00%     81.58% # Type of FU issued
system.switch_cpus.iq.FU_type_0::SimdCmp            0      0.00%     81.58% # Type of FU issued
system.switch_cpus.iq.FU_type_0::SimdCvt            0      0.00%     81.58% # Type of FU issued
system.switch_cpus.iq.FU_type_0::SimdMisc         2798      0.01%     81.59% # Type of FU issued
system.switch_cpus.iq.FU_type_0::SimdMult            0      0.00%     81.59% # Type of FU issued
system.switch_cpus.iq.FU_type_0::SimdMultAcc            0      0.00%     81.59% # Type of FU issued
system.switch_cpus.iq.FU_type_0::SimdShift            0      0.00%     81.59% # Type of FU issued
system.switch_cpus.iq.FU_type_0::SimdShiftAcc            0      0.00%     81.59% # Type of FU issued
system.switch_cpus.iq.FU_type_0::SimdDiv            0      0.00%     81.59% # Type of FU issued
system.switch_cpus.iq.FU_type_0::SimdSqrt            0      0.00%     81.59% # Type of FU issued
system.switch_cpus.iq.FU_type_0::SimdFloatAdd            0      0.00%     81.59% # Type of FU issued
system.switch_cpus.iq.FU_type_0::SimdFloatAlu            0      0.00%     81.59% # Type of FU issued
system.switch_cpus.iq.FU_type_0::SimdFloatCmp            0      0.00%     81.59% # Type of FU issued
system.switch_cpus.iq.FU_type_0::SimdFloatCvt            0      0.00%     81.59% # Type of FU issued
system.switch_cpus.iq.FU_type_0::SimdFloatDiv            0      0.00%     81.59% # Type of FU issued
system.switch_cpus.iq.FU_type_0::SimdFloatMisc            0      0.00%     81.59% # Type of FU issued
system.switch_cpus.iq.FU_type_0::SimdFloatMult            0      0.00%     81.59% # Type of FU issued
system.switch_cpus.iq.FU_type_0::SimdFloatMultAcc            0      0.00%     81.59% # Type of FU issued
system.switch_cpus.iq.FU_type_0::SimdFloatSqrt            0      0.00%     81.59% # Type of FU issued
system.switch_cpus.iq.FU_type_0::SimdReduceAdd            0      0.00%     81.59% # Type of FU issued
system.switch_cpus.iq.FU_type_0::SimdReduceAlu            0      0.00%     81.59% # Type of FU issued
system.switch_cpus.iq.FU_type_0::SimdReduceCmp            0      0.00%     81.59% # Type of FU issued
system.switch_cpus.iq.FU_type_0::SimdFloatReduceAdd            0      0.00%     81.59% # Type of FU issued
system.switch_cpus.iq.FU_type_0::SimdFloatReduceCmp            0      0.00%     81.59% # Type of FU issued
system.switch_cpus.iq.FU_type_0::SimdAes            0      0.00%     81.59% # Type of FU issued
system.switch_cpus.iq.FU_type_0::SimdAesMix            0      0.00%     81.59% # Type of FU issued
system.switch_cpus.iq.FU_type_0::SimdSha1Hash            0      0.00%     81.59% # Type of FU issued
system.switch_cpus.iq.FU_type_0::SimdSha1Hash2            0      0.00%     81.59% # Type of FU issued
system.switch_cpus.iq.FU_type_0::SimdSha256Hash            0      0.00%     81.59% # Type of FU issued
system.switch_cpus.iq.FU_type_0::SimdSha256Hash2            0      0.00%     81.59% # Type of FU issued
system.switch_cpus.iq.FU_type_0::SimdShaSigma2            0      0.00%     81.59% # Type of FU issued
system.switch_cpus.iq.FU_type_0::SimdShaSigma3            0      0.00%     81.59% # Type of FU issued
system.switch_cpus.iq.FU_type_0::SimdPredAlu            0      0.00%     81.59% # Type of FU issued
system.switch_cpus.iq.FU_type_0::MemRead      2287521     12.12%     93.71% # Type of FU issued
system.switch_cpus.iq.FU_type_0::MemWrite      1103878      5.85%     99.56% # Type of FU issued
system.switch_cpus.iq.FU_type_0::FloatMemRead        47453      0.25%     99.81% # Type of FU issued
system.switch_cpus.iq.FU_type_0::FloatMemWrite        36423      0.19%    100.00% # Type of FU issued
system.switch_cpus.iq.FU_type_0::IprAccess            0      0.00%    100.00% # Type of FU issued
system.switch_cpus.iq.FU_type_0::InstPrefetch            0      0.00%    100.00% # Type of FU issued
system.switch_cpus.iq.FU_type_0::total       18878686                       # Type of FU issued
system.switch_cpus.iq.fp_alu_accesses           95975                       # Number of floating point alu accesses
system.switch_cpus.iq.fp_inst_queue_reads       184055                       # Number of floating instruction queue reads
system.switch_cpus.iq.fp_inst_queue_wakeup_accesses        82995                       # Number of floating instruction queue wakeup accesses
system.switch_cpus.iq.fp_inst_queue_writes       104116                       # Number of floating instruction queue writes
system.switch_cpus.iq.fu_busy_cnt              472326                       # FU busy when requested
system.switch_cpus.iq.fu_busy_rate           0.025019                       # FU busy rate (busy events/executed inst)
system.switch_cpus.iq.fu_full::No_OpClass            0      0.00%      0.00% # attempts to use FU when none available
system.switch_cpus.iq.fu_full::IntAlu          423102     89.58%     89.58% # attempts to use FU when none available
system.switch_cpus.iq.fu_full::IntMult              0      0.00%     89.58% # attempts to use FU when none available
system.switch_cpus.iq.fu_full::IntDiv               0      0.00%     89.58% # attempts to use FU when none available
system.switch_cpus.iq.fu_full::FloatAdd             0      0.00%     89.58% # attempts to use FU when none available
system.switch_cpus.iq.fu_full::FloatCmp             0      0.00%     89.58% # attempts to use FU when none available
system.switch_cpus.iq.fu_full::FloatCvt             0      0.00%     89.58% # attempts to use FU when none available
system.switch_cpus.iq.fu_full::FloatMult            0      0.00%     89.58% # attempts to use FU when none available
system.switch_cpus.iq.fu_full::FloatMultAcc            0      0.00%     89.58% # attempts to use FU when none available
system.switch_cpus.iq.fu_full::FloatDiv             0      0.00%     89.58% # attempts to use FU when none available
system.switch_cpus.iq.fu_full::FloatMisc            0      0.00%     89.58% # attempts to use FU when none available
system.switch_cpus.iq.fu_full::FloatSqrt            0      0.00%     89.58% # attempts to use FU when none available
system.switch_cpus.iq.fu_full::SimdAdd              0      0.00%     89.58% # attempts to use FU when none available
system.switch_cpus.iq.fu_full::SimdAddAcc            0      0.00%     89.58% # attempts to use FU when none available
system.switch_cpus.iq.fu_full::SimdAlu              0      0.00%     89.58% # attempts to use FU when none available
system.switch_cpus.iq.fu_full::SimdCmp              0      0.00%     89.58% # attempts to use FU when none available
system.switch_cpus.iq.fu_full::SimdCvt              0      0.00%     89.58% # attempts to use FU when none available
system.switch_cpus.iq.fu_full::SimdMisc             0      0.00%     89.58% # attempts to use FU when none available
system.switch_cpus.iq.fu_full::SimdMult             0      0.00%     89.58% # attempts to use FU when none available
system.switch_cpus.iq.fu_full::SimdMultAcc            0      0.00%     89.58% # attempts to use FU when none available
system.switch_cpus.iq.fu_full::SimdShift            0      0.00%     89.58% # attempts to use FU when none available
system.switch_cpus.iq.fu_full::SimdShiftAcc            0      0.00%     89.58% # attempts to use FU when none available
system.switch_cpus.iq.fu_full::SimdDiv              0      0.00%     89.58% # attempts to use FU when none available
system.switch_cpus.iq.fu_full::SimdSqrt             0      0.00%     89.58% # attempts to use FU when none available
system.switch_cpus.iq.fu_full::SimdFloatAdd            0      0.00%     89.58% # attempts to use FU when none available
system.switch_cpus.iq.fu_full::SimdFloatAlu            0      0.00%     89.58% # attempts to use FU when none available
system.switch_cpus.iq.fu_full::SimdFloatCmp            0      0.00%     89.58% # attempts to use FU when none available
system.switch_cpus.iq.fu_full::SimdFloatCvt            0      0.00%     89.58% # attempts to use FU when none available
system.switch_cpus.iq.fu_full::SimdFloatDiv            0      0.00%     89.58% # attempts to use FU when none available
system.switch_cpus.iq.fu_full::SimdFloatMisc            0      0.00%     89.58% # attempts to use FU when none available
system.switch_cpus.iq.fu_full::SimdFloatMult            0      0.00%     89.58% # attempts to use FU when none available
system.switch_cpus.iq.fu_full::SimdFloatMultAcc            0      0.00%     89.58% # attempts to use FU when none available
system.switch_cpus.iq.fu_full::SimdFloatSqrt            0      0.00%     89.58% # attempts to use FU when none available
system.switch_cpus.iq.fu_full::SimdReduceAdd            0      0.00%     89.58% # attempts to use FU when none available
system.switch_cpus.iq.fu_full::SimdReduceAlu            0      0.00%     89.58% # attempts to use FU when none available
system.switch_cpus.iq.fu_full::SimdReduceCmp            0      0.00%     89.58% # attempts to use FU when none available
system.switch_cpus.iq.fu_full::SimdFloatReduceAdd            0      0.00%     89.58% # attempts to use FU when none available
system.switch_cpus.iq.fu_full::SimdFloatReduceCmp            0      0.00%     89.58% # attempts to use FU when none available
system.switch_cpus.iq.fu_full::SimdAes              0      0.00%     89.58% # attempts to use FU when none available
system.switch_cpus.iq.fu_full::SimdAesMix            0      0.00%     89.58% # attempts to use FU when none available
system.switch_cpus.iq.fu_full::SimdSha1Hash            0      0.00%     89.58% # attempts to use FU when none available
system.switch_cpus.iq.fu_full::SimdSha1Hash2            0      0.00%     89.58% # attempts to use FU when none available
system.switch_cpus.iq.fu_full::SimdSha256Hash            0      0.00%     89.58% # attempts to use FU when none available
system.switch_cpus.iq.fu_full::SimdSha256Hash2            0      0.00%     89.58% # attempts to use FU when none available
system.switch_cpus.iq.fu_full::SimdShaSigma2            0      0.00%     89.58% # attempts to use FU when none available
system.switch_cpus.iq.fu_full::SimdShaSigma3            0      0.00%     89.58% # attempts to use FU when none available
system.switch_cpus.iq.fu_full::SimdPredAlu            0      0.00%     89.58% # attempts to use FU when none available
system.switch_cpus.iq.fu_full::MemRead          26885      5.69%     95.27% # attempts to use FU when none available
system.switch_cpus.iq.fu_full::MemWrite         14154      3.00%     98.27% # attempts to use FU when none available
system.switch_cpus.iq.fu_full::FloatMemRead         5357      1.13%     99.40% # attempts to use FU when none available
system.switch_cpus.iq.fu_full::FloatMemWrite         2828      0.60%    100.00% # attempts to use FU when none available
system.switch_cpus.iq.fu_full::IprAccess            0      0.00%    100.00% # attempts to use FU when none available
system.switch_cpus.iq.fu_full::InstPrefetch            0      0.00%    100.00% # attempts to use FU when none available
system.switch_cpus.iq.int_alu_accesses       19216684                       # Number of integer alu accesses
system.switch_cpus.iq.int_inst_queue_reads     43581084                       # Number of integer instruction queue reads
system.switch_cpus.iq.int_inst_queue_wakeup_accesses     18557436                       # Number of integer instruction queue wakeup accesses
system.switch_cpus.iq.int_inst_queue_writes     21403577                       # Number of integer instruction queue writes
system.switch_cpus.iq.iqInstsAdded           19460636                       # Number of instructions added to the IQ (excludes non-spec)
system.switch_cpus.iq.iqInstsIssued          18878686                       # Number of instructions issued
system.switch_cpus.iq.iqSquashedInstsExamined      2045321                       # Number of squashed instructions iterated over during squash; mainly for profiling
system.switch_cpus.iq.iqSquashedInstsIssued        25273                       # Number of squashed instructions issued
system.switch_cpus.iq.iqSquashedOperandsExamined      2443067                       # Number of squashed operands that are examined and possibly removed from graph
system.switch_cpus.iq.issued_per_cycle::samples      5510171                       # Number of insts issued each cycle
system.switch_cpus.iq.issued_per_cycle::mean     3.426152                       # Number of insts issued each cycle
system.switch_cpus.iq.issued_per_cycle::stdev     2.429110                       # Number of insts issued each cycle
system.switch_cpus.iq.issued_per_cycle::underflows            0      0.00%      0.00% # Number of insts issued each cycle
system.switch_cpus.iq.issued_per_cycle::0       916169     16.63%     16.63% # Number of insts issued each cycle
system.switch_cpus.iq.issued_per_cycle::1       566107     10.27%     26.90% # Number of insts issued each cycle
system.switch_cpus.iq.issued_per_cycle::2       724693     13.15%     40.05% # Number of insts issued each cycle
system.switch_cpus.iq.issued_per_cycle::3       665747     12.08%     52.13% # Number of insts issued each cycle
system.switch_cpus.iq.issued_per_cycle::4       591060     10.73%     62.86% # Number of insts issued each cycle
system.switch_cpus.iq.issued_per_cycle::5       637931     11.58%     74.44% # Number of insts issued each cycle
system.switch_cpus.iq.issued_per_cycle::6       762860     13.84%     88.28% # Number of insts issued each cycle
system.switch_cpus.iq.issued_per_cycle::7       429935      7.80%     96.09% # Number of insts issued each cycle
system.switch_cpus.iq.issued_per_cycle::8       215669      3.91%    100.00% # Number of insts issued each cycle
system.switch_cpus.iq.issued_per_cycle::overflows            0      0.00%    100.00% # Number of insts issued each cycle
system.switch_cpus.iq.issued_per_cycle::min_value            0                       # Number of insts issued each cycle
system.switch_cpus.iq.issued_per_cycle::max_value            8                       # Number of insts issued each cycle
system.switch_cpus.iq.issued_per_cycle::total      5510171                       # Number of insts issued each cycle
system.switch_cpus.iq.rate                   3.384675                       # Inst issue rate
system.switch_cpus.iq.vec_alu_accesses              0                       # Number of vector alu accesses
system.switch_cpus.iq.vec_inst_queue_reads            0                       # Number of vector instruction queue reads
system.switch_cpus.iq.vec_inst_queue_wakeup_accesses            0                       # Number of vector instruction queue wakeup accesses
system.switch_cpus.iq.vec_inst_queue_writes            0                       # Number of vector instruction queue writes
system.switch_cpus.memDep0.conflictingLoads       166915                       # Number of conflicting loads.
system.switch_cpus.memDep0.conflictingStores       130091                       # Number of conflicting stores.
system.switch_cpus.memDep0.insertedLoads      2379467                       # Number of loads inserted to the mem dependence unit.
system.switch_cpus.memDep0.insertedStores      1184842                       # Number of stores inserted to the mem dependence unit.
system.switch_cpus.misc_regfile_reads         7239632                       # number of misc regfile reads
system.switch_cpus.numCycles                  5577696                       # number of cpu cycles simulated
system.switch_cpus.numWorkItemsCompleted            0                       # number of work items this cpu completed
system.switch_cpus.numWorkItemsStarted              0                       # number of work items this cpu started
system.switch_cpus.timesIdled                    1566                       # Number of times that the entire CPU went into an idle state and unscheduled itself
system.tol2bus.snoop_filter.hit_multi_requests            1                       # Number of requests hitting in the snoop filter with multiple (>1) holders of the requested data.
system.tol2bus.snoop_filter.hit_multi_snoops            0                       # Number of snoops hitting in the snoop filter with multiple (>1) holders of the requested data.
system.tol2bus.snoop_filter.hit_single_requests         4500                       # Number of requests hitting in the snoop filter with a single holder of the requested data.
system.tol2bus.snoop_filter.hit_single_snoops            4                       # Number of snoops hitting in the snoop filter with a single holder of the requested data.
system.tol2bus.snoop_filter.tot_requests         9019                       # Total number of requests made to the snoop filter.
system.tol2bus.snoop_filter.tot_snoops              4                       # Total number of snoops made to the snoop filter.
system.clk_domain.clock                          1000                       # Clock period in ticks
system.cpu.branchPred.lookups                       0                       # Number of BP lookups
system.cpu.branchPred.condPredicted                 0                       # Number of conditional branches predicted
system.cpu.branchPred.condIncorrect                 0                       # Number of conditional branches incorrect
system.cpu.branchPred.BTBLookups                    0                       # Number of BTB lookups
system.cpu.branchPred.BTBHits                       0                       # Number of BTB hits
system.cpu.branchPred.BTBHitPct                   nan                       # BTB Hit Percentage
system.cpu.branchPred.RASUsed                       0                       # Number of times the RAS was used to get a target.
system.cpu.branchPred.RASIncorrect                  0                       # Number of incorrect RAS predictions.
system.cpu.branchPred.indirectLookups               0                       # Number of indirect predictor lookups.
system.cpu.branchPred.indirectHits                  0                       # Number of indirect target hits.
system.cpu.branchPred.indirectMisses                0                       # Number of indirect misses.
system.cpu.branchPred.indirectMispredicted            0                       # Number of mispredicted indirect branches.
system.cpu.branchPred.tage.longestMatchProviderCorrect            0                       # Number of times TAGE Longest Match is the provider and the prediction is correct
system.cpu.branchPred.tage.altMatchProviderCorrect            0                       # Number of times TAGE Alt Match is the provider and the prediction is correct
system.cpu.branchPred.tage.bimodalAltMatchProviderCorrect            0                       # Number of times TAGE Alt Match is the bimodal and it is the provider and the prediction is correct
system.cpu.branchPred.tage.bimodalProviderCorrect            0                       # Number of times there are no hits on the TAGE tables and the bimodal prediction is correct
system.cpu.branchPred.tage.longestMatchProviderWrong            0                       # Number of times TAGE Longest Match is the provider and the prediction is wrong
system.cpu.branchPred.tage.altMatchProviderWrong            0                       # Number of times TAGE Alt Match is the provider and the prediction is wrong
system.cpu.branchPred.tage.bimodalAltMatchProviderWrong            0                       # Number of times TAGE Alt Match is the bimodal and it is the provider and the prediction is wrong
system.cpu.branchPred.tage.bimodalProviderWrong            0                       # Number of times there are no hits on the TAGE tables and the bimodal prediction is wrong
system.cpu.branchPred.tage.altMatchProviderWouldHaveHit            0                       # Number of times TAGE Longest Match is the provider, the prediction is wrong and Alt Match prediction was correct
system.cpu.branchPred.tage.longestMatchProviderWouldHaveHit            0                       # Number of times TAGE Alt Match is the provider, the prediction is wrong and Longest Match prediction was correct
system.cpu.branchPred.tage.longestMatchProvider::0            0                       # TAGE provider for longest match
system.cpu.branchPred.tage.longestMatchProvider::1            0                       # TAGE provider for longest match
system.cpu.branchPred.tage.longestMatchProvider::2            0                       # TAGE provider for longest match
system.cpu.branchPred.tage.longestMatchProvider::3            0                       # TAGE provider for longest match
system.cpu.branchPred.tage.longestMatchProvider::4            0                       # TAGE provider for longest match
system.cpu.branchPred.tage.longestMatchProvider::5            0                       # TAGE provider for longest match
system.cpu.branchPred.tage.longestMatchProvider::6            0                       # TAGE provider for longest match
system.cpu.branchPred.tage.longestMatchProvider::7            0                       # TAGE provider for longest match
system.cpu.branchPred.tage.altMatchProvider::0            0                       # TAGE provider for alt match
system.cpu.branchPred.tage.altMatchProvider::1            0                       # TAGE provider for alt match
system.cpu.branchPred.tage.altMatchProvider::2            0                       # TAGE provider for alt match
system.cpu.branchPred.tage.altMatchProvider::3            0                       # TAGE provider for alt match
system.cpu.branchPred.tage.altMatchProvider::4            0                       # TAGE provider for alt match
system.cpu.branchPred.tage.altMatchProvider::5            0                       # TAGE provider for alt match
system.cpu.branchPred.tage.altMatchProvider::6            0                       # TAGE provider for alt match
system.cpu.branchPred.tage.altMatchProvider::7            0                       # TAGE provider for alt match
system.cpu.dcache.demand_hits::.switch_cpus.data      3151509                       # number of demand (read+write) hits
system.cpu.dcache.demand_hits::total          3151509                       # number of demand (read+write) hits
system.cpu.dcache.overall_hits::.switch_cpus.data      3151509                       # number of overall hits
system.cpu.dcache.overall_hits::total         3151509                       # number of overall hits
system.cpu.dcache.demand_misses::.switch_cpus.data          125                       # number of demand (read+write) misses
system.cpu.dcache.demand_misses::total            125                       # number of demand (read+write) misses
system.cpu.dcache.overall_misses::.switch_cpus.data          125                       # number of overall misses
system.cpu.dcache.overall_misses::total           125                       # number of overall misses
system.cpu.dcache.demand_miss_latency::.switch_cpus.data      7153000                       # number of demand (read+write) miss cycles
system.cpu.dcache.demand_miss_latency::total      7153000                       # number of demand (read+write) miss cycles
system.cpu.dcache.overall_miss_latency::.switch_cpus.data      7153000                       # number of overall miss cycles
system.cpu.dcache.overall_miss_latency::total      7153000                       # number of overall miss cycles
system.cpu.dcache.demand_accesses::.switch_cpus.data      3151634                       # number of demand (read+write) accesses
system.cpu.dcache.demand_accesses::total      3151634                       # number of demand (read+write) accesses
system.cpu.dcache.overall_accesses::.switch_cpus.data      3151634                       # number of overall (read+write) accesses
system.cpu.dcache.overall_accesses::total      3151634                       # number of overall (read+write) accesses
system.cpu.dcache.demand_miss_rate::.switch_cpus.data     0.000040                       # miss rate for demand accesses
system.cpu.dcache.demand_miss_rate::total     0.000040                       # miss rate for demand accesses
system.cpu.dcache.overall_miss_rate::.switch_cpus.data     0.000040                       # miss rate for overall accesses
system.cpu.dcache.overall_miss_rate::total     0.000040                       # miss rate for overall accesses
system.cpu.dcache.demand_avg_miss_latency::.switch_cpus.data        57224                       # average overall miss latency
system.cpu.dcache.demand_avg_miss_latency::total        57224                       # average overall miss latency
system.cpu.dcache.overall_avg_miss_latency::.switch_cpus.data        57224                       # average overall miss latency
system.cpu.dcache.overall_avg_miss_latency::total        57224                       # average overall miss latency
system.cpu.dcache.blocked_cycles::no_mshrs            0                       # number of cycles access was blocked
system.cpu.dcache.blocked_cycles::no_targets            0                       # number of cycles access was blocked
system.cpu.dcache.blocked::no_mshrs                 0                       # number of cycles access was blocked
system.cpu.dcache.blocked::no_targets               0                       # number of cycles access was blocked
system.cpu.dcache.avg_blocked_cycles::no_mshrs          nan                       # average number of cycles each access was blocked
system.cpu.dcache.avg_blocked_cycles::no_targets          nan                       # average number of cycles each access was blocked
system.cpu.dcache.writebacks::.writebacks           96                       # number of writebacks
system.cpu.dcache.writebacks::total                96                       # number of writebacks
system.cpu.dcache.demand_mshr_hits::.switch_cpus.data           19                       # number of demand (read+write) MSHR hits
system.cpu.dcache.demand_mshr_hits::total           19                       # number of demand (read+write) MSHR hits
system.cpu.dcache.overall_mshr_hits::.switch_cpus.data           19                       # number of overall MSHR hits
system.cpu.dcache.overall_mshr_hits::total           19                       # number of overall MSHR hits
system.cpu.dcache.demand_mshr_misses::.switch_cpus.data          106                       # number of demand (read+write) MSHR misses
system.cpu.dcache.demand_mshr_misses::total          106                       # number of demand (read+write) MSHR misses
system.cpu.dcache.overall_mshr_misses::.switch_cpus.data          106                       # number of overall MSHR misses
system.cpu.dcache.overall_mshr_misses::total          106                       # number of overall MSHR misses
system.cpu.dcache.demand_mshr_miss_latency::.switch_cpus.data      6070500                       # number of demand (read+write) MSHR miss cycles
system.cpu.dcache.demand_mshr_miss_latency::total      6070500                       # number of demand (read+write) MSHR miss cycles
system.cpu.dcache.overall_mshr_miss_latency::.switch_cpus.data      6070500                       # number of overall MSHR miss cycles
system.cpu.dcache.overall_mshr_miss_latency::total      6070500                       # number of overall MSHR miss cycles
system.cpu.dcache.demand_mshr_miss_rate::.switch_cpus.data     0.000034                       # mshr miss rate for demand accesses
system.cpu.dcache.demand_mshr_miss_rate::total     0.000034                       # mshr miss rate for demand accesses
system.cpu.dcache.overall_mshr_miss_rate::.switch_cpus.data     0.000034                       # mshr miss rate for overall accesses
system.cpu.dcache.overall_mshr_miss_rate::total     0.000034                       # mshr miss rate for overall accesses
system.cpu.dcache.demand_avg_mshr_miss_latency::.switch_cpus.data 57268.867925                       # average overall mshr miss latency
system.cpu.dcache.demand_avg_mshr_miss_latency::total 57268.867925                       # average overall mshr miss latency
system.cpu.dcache.overall_avg_mshr_miss_latency::.switch_cpus.data 57268.867925                       # average overall mshr miss latency
system.cpu.dcache.overall_avg_mshr_miss_latency::total 57268.867925                       # average overall mshr miss latency
system.cpu.dcache.replacements                    106                       # number of replacements
system.cpu.dcache.ReadReq_hits::.switch_cpus.data      2089778                       # number of ReadReq hits
system.cpu.dcache.ReadReq_hits::total         2089778                       # number of ReadReq hits
system.cpu.dcache.ReadReq_misses::.switch_cpus.data           44                       # number of ReadReq misses
system.cpu.dcache.ReadReq_misses::total            44                       # number of ReadReq misses
system.cpu.dcache.ReadReq_miss_latency::.switch_cpus.data      1686500                       # number of ReadReq miss cycles
system.cpu.dcache.ReadReq_miss_latency::total      1686500                       # number of ReadReq miss cycles
system.cpu.dcache.ReadReq_accesses::.switch_cpus.data      2089822                       # number of ReadReq accesses(hits+misses)
system.cpu.dcache.ReadReq_accesses::total      2089822                       # number of ReadReq accesses(hits+misses)
system.cpu.dcache.ReadReq_miss_rate::.switch_cpus.data     0.000021                       # miss rate for ReadReq accesses
system.cpu.dcache.ReadReq_miss_rate::total     0.000021                       # miss rate for ReadReq accesses
system.cpu.dcache.ReadReq_avg_miss_latency::.switch_cpus.data 38329.545455                       # average ReadReq miss latency
system.cpu.dcache.ReadReq_avg_miss_latency::total 38329.545455                       # average ReadReq miss latency
system.cpu.dcache.ReadReq_mshr_hits::.switch_cpus.data           19                       # number of ReadReq MSHR hits
system.cpu.dcache.ReadReq_mshr_hits::total           19                       # number of ReadReq MSHR hits
system.cpu.dcache.ReadReq_mshr_misses::.switch_cpus.data           25                       # number of ReadReq MSHR misses
system.cpu.dcache.ReadReq_mshr_misses::total           25                       # number of ReadReq MSHR misses
system.cpu.dcache.ReadReq_mshr_miss_latency::.switch_cpus.data       685000                       # number of ReadReq MSHR miss cycles
system.cpu.dcache.ReadReq_mshr_miss_latency::total       685000                       # number of ReadReq MSHR miss cycles
system.cpu.dcache.ReadReq_mshr_miss_rate::.switch_cpus.data     0.000012                       # mshr miss rate for ReadReq accesses
system.cpu.dcache.ReadReq_mshr_miss_rate::total     0.000012                       # mshr miss rate for ReadReq accesses
system.cpu.dcache.ReadReq_avg_mshr_miss_latency::.switch_cpus.data        27400                       # average ReadReq mshr miss latency
system.cpu.dcache.ReadReq_avg_mshr_miss_latency::total        27400                       # average ReadReq mshr miss latency
system.cpu.dcache.WriteReq_hits::.switch_cpus.data      1061731                       # number of WriteReq hits
system.cpu.dcache.WriteReq_hits::total        1061731                       # number of WriteReq hits
system.cpu.dcache.WriteReq_misses::.switch_cpus.data           81                       # number of WriteReq misses
system.cpu.dcache.WriteReq_misses::total           81                       # number of WriteReq misses
system.cpu.dcache.WriteReq_miss_latency::.switch_cpus.data      5466500                       # number of WriteReq miss cycles
system.cpu.dcache.WriteReq_miss_latency::total      5466500                       # number of WriteReq miss cycles
system.cpu.dcache.WriteReq_accesses::.switch_cpus.data      1061812                       # number of WriteReq accesses(hits+misses)
system.cpu.dcache.WriteReq_accesses::total      1061812                       # number of WriteReq accesses(hits+misses)
system.cpu.dcache.WriteReq_miss_rate::.switch_cpus.data     0.000076                       # miss rate for WriteReq accesses
system.cpu.dcache.WriteReq_miss_rate::total     0.000076                       # miss rate for WriteReq accesses
system.cpu.dcache.WriteReq_avg_miss_latency::.switch_cpus.data 67487.654321                       # average WriteReq miss latency
system.cpu.dcache.WriteReq_avg_miss_latency::total 67487.654321                       # average WriteReq miss latency
system.cpu.dcache.WriteReq_mshr_misses::.switch_cpus.data           81                       # number of WriteReq MSHR misses
system.cpu.dcache.WriteReq_mshr_misses::total           81                       # number of WriteReq MSHR misses
system.cpu.dcache.WriteReq_mshr_miss_latency::.switch_cpus.data      5385500                       # number of WriteReq MSHR miss cycles
system.cpu.dcache.WriteReq_mshr_miss_latency::total      5385500                       # number of WriteReq MSHR miss cycles
system.cpu.dcache.WriteReq_mshr_miss_rate::.switch_cpus.data     0.000076                       # mshr miss rate for WriteReq accesses
system.cpu.dcache.WriteReq_mshr_miss_rate::total     0.000076                       # mshr miss rate for WriteReq accesses
system.cpu.dcache.WriteReq_avg_mshr_miss_latency::.switch_cpus.data 66487.654321                       # average WriteReq mshr miss latency
system.cpu.dcache.WriteReq_avg_mshr_miss_latency::total 66487.654321                       # average WriteReq mshr miss latency
system.cpu.dcache.power_state.pwrStateResidencyTicks::UNDEFINED   3877573000                       # Cumulative time (in ticks) in various power states
system.cpu.dcache.tags.tagsinuse                 1024                       # Cycle average of tags in use
system.cpu.dcache.tags.total_refs             3365674                       # Total number of references to valid blocks.
system.cpu.dcache.tags.sampled_refs              1130                       # Sample count of references to valid blocks.
system.cpu.dcache.tags.avg_refs           2978.472566                       # Average number of references to valid blocks.
system.cpu.dcache.tags.warmup_cycle                 0                       # Cycle when the warmup percentage was hit.
system.cpu.dcache.tags.occ_blocks::.cpu.data   947.603363                       # Average occupied blocks per requestor
system.cpu.dcache.tags.occ_blocks::.switch_cpus.data    76.396637                       # Average occupied blocks per requestor
system.cpu.dcache.tags.occ_percent::.cpu.data     0.925394                       # Average percentage of cache occupancy
system.cpu.dcache.tags.occ_percent::.switch_cpus.data     0.074606                       # Average percentage of cache occupancy
system.cpu.dcache.tags.occ_percent::total            1                       # Average percentage of cache occupancy
system.cpu.dcache.tags.occ_task_id_blocks::1024         1024                       # Occupied blocks per task id
system.cpu.dcache.tags.age_task_id_blocks_1024::1            2                       # Occupied blocks per task id
system.cpu.dcache.tags.age_task_id_blocks_1024::2            2                       # Occupied blocks per task id
system.cpu.dcache.tags.age_task_id_blocks_1024::3         1020                       # Occupied blocks per task id
system.cpu.dcache.tags.occ_task_id_percent::1024            1                       # Percentage of cache occupancy per task id
system.cpu.dcache.tags.tag_accesses           6303374                       # Number of tag accesses
system.cpu.dcache.tags.data_accesses          6303374                       # Number of data accesses
system.cpu.dcache.tags.power_state.pwrStateResidencyTicks::UNDEFINED   3877573000                       # Cumulative time (in ticks) in various power states
system.cpu.dtb.rdAccesses                           0                       # TLB accesses on read requests
system.cpu.dtb.wrAccesses                           0                       # TLB accesses on write requests
system.cpu.dtb.rdMisses                             0                       # TLB misses on read requests
system.cpu.dtb.wrMisses                             0                       # TLB misses on write requests
system.cpu.dtb.walker.power_state.pwrStateResidencyTicks::UNDEFINED   3877573000                       # Cumulative time (in ticks) in various power states
system.cpu.dtb_walker_cache.blocked_cycles::no_mshrs            0                       # number of cycles access was blocked
system.cpu.dtb_walker_cache.blocked_cycles::no_targets            0                       # number of cycles access was blocked
system.cpu.dtb_walker_cache.blocked::no_mshrs            0                       # number of cycles access was blocked
system.cpu.dtb_walker_cache.blocked::no_targets            0                       # number of cycles access was blocked
system.cpu.dtb_walker_cache.avg_blocked_cycles::no_mshrs          nan                       # average number of cycles each access was blocked
system.cpu.dtb_walker_cache.avg_blocked_cycles::no_targets          nan                       # average number of cycles each access was blocked
system.cpu.dtb_walker_cache.replacements            0                       # number of replacements
system.cpu.dtb_walker_cache.power_state.pwrStateResidencyTicks::UNDEFINED   3877573000                       # Cumulative time (in ticks) in various power states
system.cpu.dtb_walker_cache.tags.tagsinuse            0                       # Cycle average of tags in use
system.cpu.dtb_walker_cache.tags.total_refs            0                       # Total number of references to valid blocks.
system.cpu.dtb_walker_cache.tags.sampled_refs            0                       # Sample count of references to valid blocks.
system.cpu.dtb_walker_cache.tags.avg_refs          nan                       # Average number of references to valid blocks.
system.cpu.dtb_walker_cache.tags.warmup_cycle            0                       # Cycle when the warmup percentage was hit.
system.cpu.dtb_walker_cache.tags.tag_accesses            0                       # Number of tag accesses
system.cpu.dtb_walker_cache.tags.data_accesses            0                       # Number of data accesses
system.cpu.dtb_walker_cache.tags.power_state.pwrStateResidencyTicks::UNDEFINED   3877573000                       # Cumulative time (in ticks) in various power states
system.cpu.icache.demand_hits::.switch_cpus.inst      1549163                       # number of demand (read+write) hits
system.cpu.icache.demand_hits::total          1549163                       # number of demand (read+write) hits
system.cpu.icache.overall_hits::.switch_cpus.inst      1549163                       # number of overall hits
system.cpu.icache.overall_hits::total         1549163                       # number of overall hits
system.cpu.icache.demand_misses::.switch_cpus.inst         5096                       # number of demand (read+write) misses
system.cpu.icache.demand_misses::total           5096                       # number of demand (read+write) misses
system.cpu.icache.overall_misses::.switch_cpus.inst         5096                       # number of overall misses
system.cpu.icache.overall_misses::total          5096                       # number of overall misses
system.cpu.icache.demand_miss_latency::.switch_cpus.inst    123038000                       # number of demand (read+write) miss cycles
system.cpu.icache.demand_miss_latency::total    123038000                       # number of demand (read+write) miss cycles
system.cpu.icache.overall_miss_latency::.switch_cpus.inst    123038000                       # number of overall miss cycles
system.cpu.icache.overall_miss_latency::total    123038000                       # number of overall miss cycles
system.cpu.icache.demand_accesses::.switch_cpus.inst      1554259                       # number of demand (read+write) accesses
system.cpu.icache.demand_accesses::total      1554259                       # number of demand (read+write) accesses
system.cpu.icache.overall_accesses::.switch_cpus.inst      1554259                       # number of overall (read+write) accesses
system.cpu.icache.overall_accesses::total      1554259                       # number of overall (read+write) accesses
system.cpu.icache.demand_miss_rate::.switch_cpus.inst     0.003279                       # miss rate for demand accesses
system.cpu.icache.demand_miss_rate::total     0.003279                       # miss rate for demand accesses
system.cpu.icache.overall_miss_rate::.switch_cpus.inst     0.003279                       # miss rate for overall accesses
system.cpu.icache.overall_miss_rate::total     0.003279                       # miss rate for overall accesses
system.cpu.icache.demand_avg_miss_latency::.switch_cpus.inst 24144.034537                       # average overall miss latency
system.cpu.icache.demand_avg_miss_latency::total 24144.034537                       # average overall miss latency
system.cpu.icache.overall_avg_miss_latency::.switch_cpus.inst 24144.034537                       # average overall miss latency
system.cpu.icache.overall_avg_miss_latency::total 24144.034537                       # average overall miss latency
system.cpu.icache.blocked_cycles::no_mshrs           48                       # number of cycles access was blocked
system.cpu.icache.blocked_cycles::no_targets            0                       # number of cycles access was blocked
system.cpu.icache.blocked::no_mshrs                 1                       # number of cycles access was blocked
system.cpu.icache.blocked::no_targets               0                       # number of cycles access was blocked
system.cpu.icache.avg_blocked_cycles::no_mshrs           48                       # average number of cycles each access was blocked
system.cpu.icache.avg_blocked_cycles::no_targets          nan                       # average number of cycles each access was blocked
system.cpu.icache.writebacks::.writebacks         4394                       # number of writebacks
system.cpu.icache.writebacks::total              4394                       # number of writebacks
system.cpu.icache.demand_mshr_hits::.switch_cpus.inst          683                       # number of demand (read+write) MSHR hits
system.cpu.icache.demand_mshr_hits::total          683                       # number of demand (read+write) MSHR hits
system.cpu.icache.overall_mshr_hits::.switch_cpus.inst          683                       # number of overall MSHR hits
system.cpu.icache.overall_mshr_hits::total          683                       # number of overall MSHR hits
system.cpu.icache.demand_mshr_misses::.switch_cpus.inst         4413                       # number of demand (read+write) MSHR misses
system.cpu.icache.demand_mshr_misses::total         4413                       # number of demand (read+write) MSHR misses
system.cpu.icache.overall_mshr_misses::.switch_cpus.inst         4413                       # number of overall MSHR misses
system.cpu.icache.overall_mshr_misses::total         4413                       # number of overall MSHR misses
system.cpu.icache.demand_mshr_miss_latency::.switch_cpus.inst    102999500                       # number of demand (read+write) MSHR miss cycles
system.cpu.icache.demand_mshr_miss_latency::total    102999500                       # number of demand (read+write) MSHR miss cycles
system.cpu.icache.overall_mshr_miss_latency::.switch_cpus.inst    102999500                       # number of overall MSHR miss cycles
system.cpu.icache.overall_mshr_miss_latency::total    102999500                       # number of overall MSHR miss cycles
system.cpu.icache.demand_mshr_miss_rate::.switch_cpus.inst     0.002839                       # mshr miss rate for demand accesses
system.cpu.icache.demand_mshr_miss_rate::total     0.002839                       # mshr miss rate for demand accesses
system.cpu.icache.overall_mshr_miss_rate::.switch_cpus.inst     0.002839                       # mshr miss rate for overall accesses
system.cpu.icache.overall_mshr_miss_rate::total     0.002839                       # mshr miss rate for overall accesses
system.cpu.icache.demand_avg_mshr_miss_latency::.switch_cpus.inst 23340.018128                       # average overall mshr miss latency
system.cpu.icache.demand_avg_mshr_miss_latency::total 23340.018128                       # average overall mshr miss latency
system.cpu.icache.overall_avg_mshr_miss_latency::.switch_cpus.inst 23340.018128                       # average overall mshr miss latency
system.cpu.icache.overall_avg_mshr_miss_latency::total 23340.018128                       # average overall mshr miss latency
system.cpu.icache.replacements                   4394                       # number of replacements
system.cpu.icache.ReadReq_hits::.switch_cpus.inst      1549163                       # number of ReadReq hits
system.cpu.icache.ReadReq_hits::total         1549163                       # number of ReadReq hits
system.cpu.icache.ReadReq_misses::.switch_cpus.inst         5096                       # number of ReadReq misses
system.cpu.icache.ReadReq_misses::total          5096                       # number of ReadReq misses
system.cpu.icache.ReadReq_miss_latency::.switch_cpus.inst    123038000                       # number of ReadReq miss cycles
system.cpu.icache.ReadReq_miss_latency::total    123038000                       # number of ReadReq miss cycles
system.cpu.icache.ReadReq_accesses::.switch_cpus.inst      1554259                       # number of ReadReq accesses(hits+misses)
system.cpu.icache.ReadReq_accesses::total      1554259                       # number of ReadReq accesses(hits+misses)
system.cpu.icache.ReadReq_miss_rate::.switch_cpus.inst     0.003279                       # miss rate for ReadReq accesses
system.cpu.icache.ReadReq_miss_rate::total     0.003279                       # miss rate for ReadReq accesses
system.cpu.icache.ReadReq_avg_miss_latency::.switch_cpus.inst 24144.034537                       # average ReadReq miss latency
system.cpu.icache.ReadReq_avg_miss_latency::total 24144.034537                       # average ReadReq miss latency
system.cpu.icache.ReadReq_mshr_hits::.switch_cpus.inst          683                       # number of ReadReq MSHR hits
system.cpu.icache.ReadReq_mshr_hits::total          683                       # number of ReadReq MSHR hits
system.cpu.icache.ReadReq_mshr_misses::.switch_cpus.inst         4413                       # number of ReadReq MSHR misses
system.cpu.icache.ReadReq_mshr_misses::total         4413                       # number of ReadReq MSHR misses
system.cpu.icache.ReadReq_mshr_miss_latency::.switch_cpus.inst    102999500                       # number of ReadReq MSHR miss cycles
system.cpu.icache.ReadReq_mshr_miss_latency::total    102999500                       # number of ReadReq MSHR miss cycles
system.cpu.icache.ReadReq_mshr_miss_rate::.switch_cpus.inst     0.002839                       # mshr miss rate for ReadReq accesses
system.cpu.icache.ReadReq_mshr_miss_rate::total     0.002839                       # mshr miss rate for ReadReq accesses
system.cpu.icache.ReadReq_avg_mshr_miss_latency::.switch_cpus.inst 23340.018128                       # average ReadReq mshr miss latency
system.cpu.icache.ReadReq_avg_mshr_miss_latency::total 23340.018128                       # average ReadReq mshr miss latency
system.cpu.icache.power_state.pwrStateResidencyTicks::UNDEFINED   3877573000                       # Cumulative time (in ticks) in various power states
system.cpu.icache.tags.tagsinuse          1021.449251                       # Cycle average of tags in use
system.cpu.icache.tags.total_refs             2323147                       # Total number of references to valid blocks.
system.cpu.icache.tags.sampled_refs              5418                       # Sample count of references to valid blocks.
system.cpu.icache.tags.avg_refs            428.783130                       # Average number of references to valid blocks.
system.cpu.icache.tags.warmup_cycle                 0                       # Cycle when the warmup percentage was hit.
system.cpu.icache.tags.occ_blocks::.cpu.inst   336.802431                       # Average occupied blocks per requestor
system.cpu.icache.tags.occ_blocks::.switch_cpus.inst   684.646820                       # Average occupied blocks per requestor
system.cpu.icache.tags.occ_percent::.cpu.inst     0.328909                       # Average percentage of cache occupancy
system.cpu.icache.tags.occ_percent::.switch_cpus.inst     0.668600                       # Average percentage of cache occupancy
system.cpu.icache.tags.occ_percent::total     0.997509                       # Average percentage of cache occupancy
system.cpu.icache.tags.occ_task_id_blocks::1024         1024                       # Occupied blocks per task id
system.cpu.icache.tags.age_task_id_blocks_1024::0            2                       # Occupied blocks per task id
system.cpu.icache.tags.age_task_id_blocks_1024::1          540                       # Occupied blocks per task id
system.cpu.icache.tags.age_task_id_blocks_1024::2          110                       # Occupied blocks per task id
system.cpu.icache.tags.age_task_id_blocks_1024::3          372                       # Occupied blocks per task id
system.cpu.icache.tags.occ_task_id_percent::1024            1                       # Percentage of cache occupancy per task id
system.cpu.icache.tags.tag_accesses           3112931                       # Number of tag accesses
system.cpu.icache.tags.data_accesses          3112931                       # Number of data accesses
system.cpu.icache.tags.power_state.pwrStateResidencyTicks::UNDEFINED   3877573000                       # Cumulative time (in ticks) in various power states
system.cpu.interrupts.clk_domain.clock           8000                       # Clock period in ticks
system.cpu.itb.rdAccesses                           0                       # TLB accesses on read requests
system.cpu.itb.wrAccesses                           0                       # TLB accesses on write requests
system.cpu.itb.rdMisses                             0                       # TLB misses on read requests
system.cpu.itb.wrMisses                             0                       # TLB misses on write requests
system.cpu.itb.walker.power_state.pwrStateResidencyTicks::UNDEFINED   3877573000                       # Cumulative time (in ticks) in various power states
system.cpu.itb_walker_cache.blocked_cycles::no_mshrs            0                       # number of cycles access was blocked
system.cpu.itb_walker_cache.blocked_cycles::no_targets            0                       # number of cycles access was blocked
system.cpu.itb_walker_cache.blocked::no_mshrs            0                       # number of cycles access was blocked
system.cpu.itb_walker_cache.blocked::no_targets            0                       # number of cycles access was blocked
system.cpu.itb_walker_cache.avg_blocked_cycles::no_mshrs          nan                       # average number of cycles each access was blocked
system.cpu.itb_walker_cache.avg_blocked_cycles::no_targets          nan                       # average number of cycles each access was blocked
system.cpu.itb_walker_cache.replacements            0                       # number of replacements
system.cpu.itb_walker_cache.power_state.pwrStateResidencyTicks::UNDEFINED   3877573000                       # Cumulative time (in ticks) in various power states
system.cpu.itb_walker_cache.tags.tagsinuse            0                       # Cycle average of tags in use
system.cpu.itb_walker_cache.tags.total_refs            0                       # Total number of references to valid blocks.
system.cpu.itb_walker_cache.tags.sampled_refs            0                       # Sample count of references to valid blocks.
system.cpu.itb_walker_cache.tags.avg_refs          nan                       # Average number of references to valid blocks.
system.cpu.itb_walker_cache.tags.warmup_cycle            0                       # Cycle when the warmup percentage was hit.
system.cpu.itb_walker_cache.tags.tag_accesses            0                       # Number of tag accesses
system.cpu.itb_walker_cache.tags.data_accesses            0                       # Number of data accesses
system.cpu.itb_walker_cache.tags.power_state.pwrStateResidencyTicks::UNDEFINED   3877573000                       # Cumulative time (in ticks) in various power states
system.cpu.power_state.pwrStateResidencyTicks::OFF   2788848000                       # Cumulative time (in ticks) in various power states
system.cpu.thread_0.numInsts                        0                       # Number of Instructions committed
system.cpu.thread_0.numOps                          0                       # Number of Ops committed
system.cpu.thread_0.numMemRefs                      0                       # Number of Memory References
system.cpu_clk_domain.clock                       500                       # Clock period in ticks
system.cpu_voltage_domain.voltage                   1                       # Voltage in Volts
system.l2.demand_hits::.switch_cpus.inst         3644                       # number of demand (read+write) hits
system.l2.demand_hits::.switch_cpus.data           29                       # number of demand (read+write) hits
system.l2.demand_hits::total                     3673                       # number of demand (read+write) hits
system.l2.overall_hits::.switch_cpus.inst         3644                       # number of overall hits
system.l2.overall_hits::.switch_cpus.data           29                       # number of overall hits
system.l2.overall_hits::total                    3673                       # number of overall hits
system.l2.demand_misses::.switch_cpus.inst          769                       # number of demand (read+write) misses
system.l2.demand_misses::.switch_cpus.data           77                       # number of demand (read+write) misses
system.l2.demand_misses::total                    846                       # number of demand (read+write) misses
system.l2.overall_misses::.switch_cpus.inst          769                       # number of overall misses
system.l2.overall_misses::.switch_cpus.data           77                       # number of overall misses
system.l2.overall_misses::total                   846                       # number of overall misses
system.l2.demand_miss_latency::.switch_cpus.inst     57995500                       # number of demand (read+write) miss cycles
system.l2.demand_miss_latency::.switch_cpus.data      5601000                       # number of demand (read+write) miss cycles
system.l2.demand_miss_latency::total         63596500                       # number of demand (read+write) miss cycles
system.l2.overall_miss_latency::.switch_cpus.inst     57995500                       # number of overall miss cycles
system.l2.overall_miss_latency::.switch_cpus.data      5601000                       # number of overall miss cycles
system.l2.overall_miss_latency::total        63596500                       # number of overall miss cycles
system.l2.demand_accesses::.switch_cpus.inst         4413                       # number of demand (read+write) accesses
system.l2.demand_accesses::.switch_cpus.data          106                       # number of demand (read+write) accesses
system.l2.demand_accesses::total                 4519                       # number of demand (read+write) accesses
system.l2.overall_accesses::.switch_cpus.inst         4413                       # number of overall (read+write) accesses
system.l2.overall_accesses::.switch_cpus.data          106                       # number of overall (read+write) accesses
system.l2.overall_accesses::total                4519                       # number of overall (read+write) accesses
system.l2.demand_miss_rate::.switch_cpus.inst     0.174258                       # miss rate for demand accesses
system.l2.demand_miss_rate::.switch_cpus.data     0.726415                       # miss rate for demand accesses
system.l2.demand_miss_rate::total            0.187210                       # miss rate for demand accesses
system.l2.overall_miss_rate::.switch_cpus.inst     0.174258                       # miss rate for overall accesses
system.l2.overall_miss_rate::.switch_cpus.data     0.726415                       # miss rate for overall accesses
system.l2.overall_miss_rate::total           0.187210                       # miss rate for overall accesses
system.l2.demand_avg_miss_latency::.switch_cpus.inst 75416.775033                       # average overall miss latency
system.l2.demand_avg_miss_latency::.switch_cpus.data 72740.259740                       # average overall miss latency
system.l2.demand_avg_miss_latency::total 75173.167849                       # average overall miss latency
system.l2.overall_avg_miss_latency::.switch_cpus.inst 75416.775033                       # average overall miss latency
system.l2.overall_avg_miss_latency::.switch_cpus.data 72740.259740                       # average overall miss latency
system.l2.overall_avg_miss_latency::total 75173.167849                       # average overall miss latency
system.l2.blocked_cycles::no_mshrs                  0                       # number of cycles access was blocked
system.l2.blocked_cycles::no_targets                0                       # number of cycles access was blocked
system.l2.blocked::no_mshrs                         0                       # number of cycles access was blocked
system.l2.blocked::no_targets                       0                       # number of cycles access was blocked
system.l2.avg_blocked_cycles::no_mshrs            nan                       # average number of cycles each access was blocked
system.l2.avg_blocked_cycles::no_targets          nan                       # average number of cycles each access was blocked
system.l2.writebacks::.writebacks                  65                       # number of writebacks
system.l2.writebacks::total                        65                       # number of writebacks
system.l2.demand_mshr_misses::.switch_cpus.inst          769                       # number of demand (read+write) MSHR misses
system.l2.demand_mshr_misses::.switch_cpus.data           77                       # number of demand (read+write) MSHR misses
system.l2.demand_mshr_misses::total               846                       # number of demand (read+write) MSHR misses
system.l2.overall_mshr_misses::.switch_cpus.inst          769                       # number of overall MSHR misses
system.l2.overall_mshr_misses::.switch_cpus.data           77                       # number of overall MSHR misses
system.l2.overall_mshr_misses::total              846                       # number of overall MSHR misses
system.l2.demand_mshr_miss_latency::.switch_cpus.inst     50305500                       # number of demand (read+write) MSHR miss cycles
system.l2.demand_mshr_miss_latency::.switch_cpus.data      4831000                       # number of demand (read+write) MSHR miss cycles
system.l2.demand_mshr_miss_latency::total     55136500                       # number of demand (read+write) MSHR miss cycles
system.l2.overall_mshr_miss_latency::.switch_cpus.inst     50305500                       # number of overall MSHR miss cycles
system.l2.overall_mshr_miss_latency::.switch_cpus.data      4831000                       # number of overall MSHR miss cycles
system.l2.overall_mshr_miss_latency::total     55136500                       # number of overall MSHR miss cycles
system.l2.demand_mshr_miss_rate::.switch_cpus.inst     0.174258                       # mshr miss rate for demand accesses
system.l2.demand_mshr_miss_rate::.switch_cpus.data     0.726415                       # mshr miss rate for demand accesses
system.l2.demand_mshr_miss_rate::total       0.187210                       # mshr miss rate for demand accesses
system.l2.overall_mshr_miss_rate::.switch_cpus.inst     0.174258                       # mshr miss rate for overall accesses
system.l2.overall_mshr_miss_rate::.switch_cpus.data     0.726415                       # mshr miss rate for overall accesses
system.l2.overall_mshr_miss_rate::total      0.187210                       # mshr miss rate for overall accesses
system.l2.demand_avg_mshr_miss_latency::.switch_cpus.inst 65416.775033                       # average overall mshr miss latency
system.l2.demand_avg_mshr_miss_latency::.switch_cpus.data 62740.259740                       # average overall mshr miss latency
system.l2.demand_avg_mshr_miss_latency::total 65173.167849                       # average overall mshr miss latency
system.l2.overall_avg_mshr_miss_latency::.switch_cpus.inst 65416.775033                       # average overall mshr miss latency
system.l2.overall_avg_mshr_miss_latency::.switch_cpus.data 62740.259740                       # average overall mshr miss latency
system.l2.overall_avg_mshr_miss_latency::total 65173.167849                       # average overall mshr miss latency
system.l2.replacements                            306                       # number of replacements
system.l2.WritebackDirty_hits::.writebacks           96                       # number of WritebackDirty hits
system.l2.WritebackDirty_hits::total               96                       # number of WritebackDirty hits
system.l2.WritebackDirty_accesses::.writebacks           96                       # number of WritebackDirty accesses(hits+misses)
system.l2.WritebackDirty_accesses::total           96                       # number of WritebackDirty accesses(hits+misses)
system.l2.WritebackClean_hits::.writebacks         4393                       # number of WritebackClean hits
system.l2.WritebackClean_hits::total             4393                       # number of WritebackClean hits
system.l2.WritebackClean_accesses::.writebacks         4393                       # number of WritebackClean accesses(hits+misses)
system.l2.WritebackClean_accesses::total         4393                       # number of WritebackClean accesses(hits+misses)
system.l2.ReadExReq_hits::.switch_cpus.data           10                       # number of ReadExReq hits
[...]
system.switch_cpus.commit.committedInstType_0::FloatMisc            0      0.00%     81.93% # Class of committed instruction
system.switch_cpus.commit.committedInstType_0::FloatSqrt            0      0.00%     81.93% # Class of committed instruction
system.switch_cpus.commit.committedInstType_0::SimdAdd            0      0.00%     81.93% # Class of committed instruction
system.switch_cpus.commit.committedInstType_0::SimdAddAcc            0      0.00%     81.93% # Class of committed instruction
system.switch_cpus.commit.committedInstType_0::SimdAlu           68      0.00%     81.93% # Class of committed instruction
system.switch_cpus.commit.committedInstType_0::SimdCmp            0      0.00%     81.93% # Class of committed instruction
system.switch_cpus.commit.committedInstType_0::SimdCvt            0      0.00%     81.93% # Class of committed instruction
system.switch_cpus.commit.committedInstType_0::SimdMisc         2798      0.02%     81.95% # Class of committed instruction
system.switch_cpus.commit.committedInstType_0::SimdMult            0      0.00%     81.95% # Class of committed instruction
system.switch_cpus.commit.committedInstType_0::SimdMultAcc            0      0.00%     81.95% # Class of committed instruction
system.switch_cpus.commit.committedInstType_0::SimdShift            0      0.00%     81.95% # Class of committed instruction
system.switch_cpus.commit.committedInstType_0::SimdShiftAcc            0      0.00%     81.95% # Class of committed instruction
system.switch_cpus.commit.committedInstType_0::SimdDiv            0      0.00%     81.95% # Class of committed instruction
system.switch_cpus.commit.committedInstType_0::SimdSqrt            0      0.00%     81.95% # Class of committed instruction
system.switch_cpus.commit.committedInstType_0::SimdFloatAdd            0      0.00%     81.95% # Class of committed instruction
system.switch_cpus.commit.committedInstType_0::SimdFloatAlu            0      0.00%     81.95% # Class of committed instruction
system.switch_cpus.commit.committedInstType_0::SimdFloatCmp            0      0.00%     81.95% # Class of committed instruction
system.switch_cpus.commit.committedInstType_0::SimdFloatCvt            0      0.00%     81.95% # Class of committed instruction
system.switch_cpus.commit.committedInstType_0::SimdFloatDiv            0      0.00%     81.95% # Class of committed instruction
system.switch_cpus.commit.committedInstType_0::SimdFloatMisc            0      0.00%     81.95% # Class of committed instruction
system.switch_cpus.commit.committedInstType_0::SimdFloatMult            0      0.00%     81.95% # Class of committed instruction
system.switch_cpus.commit.committedInstType_0::SimdFloatMultAcc            0      0.00%     81.95% # Class of committed instruction
system.switch_cpus.commit.committedInstType_0::SimdFloatSqrt            0      0.00%     81.95% # Class of committed instruction
system.switch_cpus.commit.committedInstType_0::SimdReduceAdd            0      0.00%     81.95% # Class of committed instruction
system.switch_cpus.commit.committedInstType_0::SimdReduceAlu            0      0.00%     81.95% # Class of committed instruction
system.switch_cpus.commit.committedInstType_0::SimdReduceCmp            0      0.00%     81.95% # Class of committed instruction
system.switch_cpus.commit.committedInstType_0::SimdFloatReduceAdd            0      0.00%     81.95% # Class of committed instruction
system.switch_cpus.commit.committedInstType_0::SimdFloatReduceCmp            0      0.00%     81.95% # Class of committed instruction
system.switch_cpus.commit.committedInstType_0::SimdAes            0      0.00%     81.95% # Class of committed instruction
system.switch_cpus.commit.committedInstType_0::SimdAesMix            0      0.00%     81.95% # Class of committed instruction
system.switch_cpus.commit.committedInstType_0::SimdSha1Hash            0      0.00%     81.95% # Class of committed instruction
system.switch_cpus.commit.committedInstType_0::SimdSha1Hash2            0      0.00%     81.95% # Class of committed instruction
system.switch_cpus.commit.committedInstType_0::SimdSha256Hash            0      0.00%     81.95% # Class of committed instruction
system.switch_cpus.commit.committedInstType_0::SimdSha256Hash2            0      0.00%     81.95% # Class of committed instruction
system.switch_cpus.commit.committedInstType_0::SimdShaSigma2            0      0.00%     81.95% # Class of committed instruction
system.switch_cpus.commit.committedInstType_0::SimdShaSigma3            0      0.00%     81.95% # Class of committed instruction
system.switch_cpus.commit.committedInstType_0::SimdPredAlu            0      0.00%     81.95% # Class of committed instruction
system.switch_cpus.commit.committedInstType_0::MemRead      2048071     11.76%     93.71% # Class of committed instruction
system.switch_cpus.commit.committedInstType_0::MemWrite      1025864      5.89%     99.60% # Class of committed instruction
system.switch_cpus.commit.committedInstType_0::FloatMemRead        33924      0.19%     99.79% # Class of committed instruction
system.switch_cpus.commit.committedInstType_0::FloatMemWrite        35740      0.21%    100.00% # Class of committed instruction
system.switch_cpus.commit.committedInstType_0::IprAccess            0      0.00%    100.00% # Class of committed instruction
system.switch_cpus.commit.committedInstType_0::InstPrefetch            0      0.00%    100.00% # Class of committed instruction
system.switch_cpus.commit.committedInstType_0::total     17415167                       # Class of committed instruction
system.switch_cpus.commit.commitEligibleSamples      1201217                       # number cycles where commit BW limit reached
system.switch_cpus.decode.idleCycles          1567662                       # Number of cycles decode is idle
system.switch_cpus.decode.blockedCycles        730435                       # Number of cycles decode is blocked
system.switch_cpus.decode.runCycles           2892204                       # Number of cycles decode is running
system.switch_cpus.decode.unblockCycles        253290                       # Number of cycles decode is unblocking
system.switch_cpus.decode.squashCycles          66577                       # Number of cycles decode is squashing
system.switch_cpus.decode.branchResolved      1238452                       # Number of times decode resolved a  branch
system.switch_cpus.decode.branchMispred         17254                       # Number of times decode detected a branch misprediction
system.switch_cpus.decode.decodedInsts       20346334                       # Number of instructions handled by decode
system.switch_cpus.decode.squashedInsts         28641                       # Number of squashed instructions handled by decode
system.switch_cpus.dtb.rdAccesses             2302609                       # TLB accesses on read requests
system.switch_cpus.dtb.wrAccesses             1124924                       # TLB accesses on write requests
system.switch_cpus.dtb.rdMisses                    19                       # TLB misses on read requests
system.switch_cpus.dtb.wrMisses                    13                       # TLB misses on write requests
system.switch_cpus.dtb.walker.power_state.pwrStateResidencyTicks::UNDEFINED   3877573000                       # Cumulative time (in ticks) in various power states
system.switch_cpus.fetch.icacheStallCycles      1695824                       # Number of cycles fetch is stalled on an Icache miss
system.switch_cpus.fetch.insts               11880692                       # Number of instructions fetch has processed
system.switch_cpus.fetch.branches             2078179                       # Number of branches that fetch encountered
system.switch_cpus.fetch.predictedBranches      1296244                       # Number of branches that fetch has predicted taken
system.switch_cpus.fetch.cycles               3730662                       # Number of cycles fetch has run and was not squashing or blocked
system.switch_cpus.fetch.squashCycles          167334                       # Number of cycles fetch has spent squashing
system.switch_cpus.fetch.miscStallCycles            1                       # Number of cycles fetch has spent waiting on interrupts,or bad addresses, or out of MSHRs
system.switch_cpus.fetch.icacheWaitRetryStallCycles           17                       # Number of stall cycles due to full MSHR
system.switch_cpus.fetch.cacheLines           1554259                       # Number of cache lines fetched
system.switch_cpus.fetch.icacheSquashes         19735                       # Number of outstanding Icache misses that were squashed
system.switch_cpus.fetch.nisnDist::samples      5510171                       # Number of instructions fetched each cycle (Total)
system.switch_cpus.fetch.nisnDist::mean      3.771198                       # Number of instructions fetched each cycle (Total)
system.switch_cpus.fetch.nisnDist::stdev     3.459592                       # Number of instructions fetched each cycle (Total)
system.switch_cpus.fetch.nisnDist::underflows            0      0.00%      0.00% # Number of instructions fetched each cycle (Total)
system.switch_cpus.fetch.nisnDist::0          2132153     38.69%     38.69% # Number of instructions fetched each cycle (Total)
system.switch_cpus.fetch.nisnDist::1           118780      2.16%     40.85% # Number of instructions fetched each cycle (Total)
system.switch_cpus.fetch.nisnDist::2           121556      2.21%     43.06% # Number of instructions fetched each cycle (Total)
system.switch_cpus.fetch.nisnDist::3           319025      5.79%     48.85% # Number of instructions fetched each cycle (Total)
system.switch_cpus.fetch.nisnDist::4           365067      6.63%     55.47% # Number of instructions fetched each cycle (Total)
system.switch_cpus.fetch.nisnDist::5           344526      6.25%     61.72% # Number of instructions fetched each cycle (Total)
system.switch_cpus.fetch.nisnDist::6           160603      2.91%     64.64% # Number of instructions fetched each cycle (Total)
system.switch_cpus.fetch.nisnDist::7           273223      4.96%     69.60% # Number of instructions fetched each cycle (Total)
system.switch_cpus.fetch.nisnDist::8          1675238     30.40%    100.00% # Number of instructions fetched each cycle (Total)
system.switch_cpus.fetch.nisnDist::overflows            0      0.00%    100.00% # Number of instructions fetched each cycle (Total)
system.switch_cpus.fetch.nisnDist::min_value            0                       # Number of instructions fetched each cycle (Total)
system.switch_cpus.fetch.nisnDist::max_value            8                       # Number of instructions fetched each cycle (Total)
system.switch_cpus.fetch.nisnDist::total      5510171                       # Number of instructions fetched each cycle (Total)
system.switch_cpus.fetch.branchRate          0.372587                       # Number of branch fetches per cycle
system.switch_cpus.fetch.rate                2.130036                       # Number of inst fetches per cycle
system.switch_cpus.itb.rdAccesses                   0                       # TLB accesses on read requests
system.switch_cpus.itb.wrAccesses             1554259                       # TLB accesses on write requests
system.switch_cpus.itb.rdMisses                     0                       # TLB misses on read requests
system.switch_cpus.itb.wrMisses                    41                       # TLB misses on write requests
system.switch_cpus.itb.walker.power_state.pwrStateResidencyTicks::UNDEFINED   3877573000                       # Cumulative time (in ticks) in various power states
system.switch_cpus.lsq0.forwLoads              212772                       # Number of loads that had data forwarded from stores
system.switch_cpus.lsq0.squashedLoads          297462                       # Number of loads squashed
system.switch_cpus.lsq0.ignoredResponses          398                       # Number of memory responses ignored because the instruction is squashed
system.switch_cpus.lsq0.memOrderViolation         1750                       # Number of memory ordering violations
system.switch_cpus.lsq0.squashedStores         123238                       # Number of stores squashed
system.switch_cpus.lsq0.rescheduledLoads            5                       # Number of loads that were rescheduled
system.switch_cpus.lsq0.blockedByCache              0                       # Number of times an access to memory failed due to the cache being blocked
system.switch_cpus.power_state.pwrStateResidencyTicks::OFF   3877573000                       # Cumulative time (in ticks) in various power states
system.switch_cpus.rename.squashCycles          66577                       # Number of cycles rename is squashing
system.switch_cpus.rename.idleCycles          1706751                       # Number of cycles rename is idle
system.switch_cpus.rename.blockCycles          240116                       # Number of cycles rename is blocking
system.switch_cpus.rename.serializeStallCycles            0                       # count of cycles rename stalledfor serializing inst
system.switch_cpus.rename.runCycles           2996624                       # Number of cycles rename is running
system.switch_cpus.rename.unblockCycles        500099                       # Number of cycles rename is unblocking
system.switch_cpus.rename.renamedInsts       20028582                       # Number of instructions processed by rename
system.switch_cpus.rename.ROBFullEvents         12716                       # Number of times rename has blocked due to ROB full
system.switch_cpus.rename.IQFullEvents         198770                       # Number of times rename has blocked due to IQ full
system.switch_cpus.rename.LQFullEvents           1417                       # Number of times rename has blocked due to LQ full
system.switch_cpus.rename.SQFullEvents         236436                       # Number of times rename has blocked due to SQ full
system.switch_cpus.rename.renamedOperands     26986557                       # Number of destination operands rename has renamed
system.switch_cpus.rename.lookups            51589851                       # Number of register rename lookups that rename has made
system.switch_cpus.rename.intLookups         31252756                       # Number of integer rename lookups
system.switch_cpus.rename.fpLookups             44350                       # Number of floating rename lookups
system.switch_cpus.rename.committedMaps      23516782                       # Number of HB maps that are committed
system.switch_cpus.rename.undoneMaps          3469472                       # Number of HB maps that are undone due to squashing
system.switch_cpus.rename.serializing               0                       # count of serializing insts renamed
system.switch_cpus.rename.tempSerializing            0                       # count of temporary serializing insts renamed
system.switch_cpus.rename.skidInsts           1160202                       # count of insts added to the skid buffer
system.switch_cpus.rob.reads                 23482912                       # The number of ROB reads
system.switch_cpus.rob.writes                39208877                       # The number of ROB writes
system.switch_cpus.thread_0.numInsts         10000001                       # Number of Instructions committed
system.switch_cpus.thread_0.numOps           17415167                       # Number of Ops committed
system.switch_cpus.thread_0.numMemRefs              0                       # Number of Memory References
system.tol2bus.trans_dist::ReadResp              4438                       # Transaction distribution
system.tol2bus.trans_dist::WritebackDirty          161                       # Transaction distribution
system.tol2bus.trans_dist::WritebackClean         4394                       # Transaction distribution
system.tol2bus.trans_dist::CleanEvict             251                       # Transaction distribution
system.tol2bus.trans_dist::ReadExReq               81                       # Transaction distribution
system.tol2bus.trans_dist::ReadExResp              81                       # Transaction distribution
system.tol2bus.trans_dist::ReadCleanReq          4413                       # Transaction distribution
system.tol2bus.trans_dist::ReadSharedReq           25                       # Transaction distribution
system.tol2bus.pkt_count_system.cpu.icache.mem_side_port::system.l2.cpu_side_port        13220                       # Packet count per connected requestor and responder (bytes)
system.tol2bus.pkt_count_system.cpu.dcache.mem_side_port::system.l2.cpu_side_port          318                       # Packet count per connected requestor and responder (bytes)
system.tol2bus.pkt_count::total                 13538                       # Packet count per connected requestor and responder (bytes)
system.tol2bus.pkt_size_system.cpu.icache.mem_side_port::system.l2.cpu_side_port       563648                       # Cumulative packet size per connected requestor and responder (bytes)
system.tol2bus.pkt_size_system.cpu.dcache.mem_side_port::system.l2.cpu_side_port        12928                       # Cumulative packet size per connected requestor and responder (bytes)
system.tol2bus.pkt_size::total                 576576                       # Cumulative packet size per connected requestor and responder (bytes)
system.tol2bus.snoops                             306                       # Total snoops (count)
system.tol2bus.snoopTraffic                      4160                       # Total snoop traffic (bytes)
system.tol2bus.snoop_fanout::samples             4825                       # Request fanout histogram
system.tol2bus.snoop_fanout::mean            0.001036                       # Request fanout histogram
system.tol2bus.snoop_fanout::stdev           0.032178                       # Request fanout histogram
system.tol2bus.snoop_fanout::underflows             0      0.00%      0.00% # Request fanout histogram
system.tol2bus.snoop_fanout::0                   4820     99.90%     99.90% # Request fanout histogram
system.tol2bus.snoop_fanout::1                      5      0.10%    100.00% # Request fanout histogram
system.tol2bus.snoop_fanout::2                      0      0.00%    100.00% # Request fanout histogram
system.tol2bus.snoop_fanout::3                      0      0.00%    100.00% # Request fanout histogram
system.tol2bus.snoop_fanout::4                      0      0.00%    100.00% # Request fanout histogram
system.tol2bus.snoop_fanout::overflows              0      0.00%    100.00% # Request fanout histogram
system.tol2bus.snoop_fanout::min_value              0                       # Request fanout histogram
system.tol2bus.snoop_fanout::max_value              1                       # Request fanout histogram
system.tol2bus.snoop_fanout::total               4825                       # Request fanout histogram
system.tol2bus.power_state.pwrStateResidencyTicks::UNDEFINED   3877573000                       # Cumulative time (in ticks) in various power states
system.tol2bus.reqLayer0.occupancy            8999500                       # Layer occupancy (ticks)
system.tol2bus.reqLayer0.utilization              0.3                       # Layer utilization (%)
system.tol2bus.respLayer0.occupancy           6619500                       # Layer occupancy (ticks)
system.tol2bus.respLayer0.utilization             0.2                       # Layer utilization (%)
system.tol2bus.respLayer1.occupancy            159000                       # Layer occupancy (ticks)
system.tol2bus.respLayer1.utilization             0.0                       # Layer utilization (%)
system.voltage_domain.voltage                       1                       # Voltage in Volts

---------- End Simulation Statistics   ----------
