
---------- Begin Simulation Statistics ----------
final_tick                                 7196779500                       # Number of ticks from beginning of simulation (restored from checkpoints and never reset)
host_inst_rate                                 182088                       # Simulator instruction rate (inst/s)
host_mem_usage                                8595212                       # Number of bytes of host memory used
host_op_rate                                   290380                       # Simulator op (including micro ops) rate (op/s)
host_seconds                                    60.41                       # Real time elapsed on the host
host_tick_rate                              101757696                       # Simulator tick rate (ticks/s)
sim_freq                                 1000000000000                       # Frequency of simulated ticks
sim_insts                                    11000001                       # Number of instructions simulated
sim_ops                                      17542007                       # Number of ops (including micro ops) simulated
sim_seconds                                  0.006147                       # Number of seconds simulated
sim_ticks                                  6147236000                       # Number of ticks simulated
system.cpu.committedInsts                           0                       # Number of instructions committed
system.cpu.committedOps                             0                       # Number of ops (including micro ops) committed
system.cpu.idle_fraction                            0                       # Percentage of idle cycles
system.cpu.not_idle_fraction                        1                       # Percentage of non-idle cycles
system.cpu.numCycles                                0                       # number of cpu cycles simulated
system.cpu.numWorkItemsCompleted                    0                       # number of work items this cpu completed
system.cpu.numWorkItemsStarted                      0                       # number of work items this cpu started
system.cpu.num_busy_cycles                          0                       # Number of busy cycles
system.cpu.num_conditional_control_insts            0                       # number of instructions that are conditional controls
system.cpu.num_fp_alu_accesses                      0                       # Number of float alu accesses
system.cpu.num_fp_insts                             0                       # number of float instructions
system.cpu.num_fp_register_reads                    0                       # number of times the floating registers were read
system.cpu.num_fp_register_writes                   0                       # number of times the floating registers were written
system.cpu.num_func_calls                           0                       # number of times a function call or return occured
system.cpu.num_idle_cycles                          0                       # Number of idle cycles
system.cpu.num_int_alu_accesses                     0                       # Number of integer alu accesses
system.cpu.num_int_insts                            0                       # number of integer instructions
system.cpu.num_int_register_reads                   0                       # number of times the integer registers were read
system.cpu.num_int_register_writes                  0                       # number of times the integer registers were written
system.cpu.num_load_insts                           0                       # Number of load instructions
system.cpu.num_mem_refs                             0                       # number of memory refs
system.cpu.num_store_insts                          0                       # Number of store instructions
system.cpu.num_vec_alu_accesses                     0                       # Number of vector alu accesses
system.cpu.num_vec_insts                            0                       # number of vector instructions
system.cpu.num_vec_register_reads                   0                       # number of times the vector registers were read
system.cpu.num_vec_register_writes                  0                       # number of times the vector registers were written
system.cpu.op_class::No_OpClass                     0                       # Class of executed instruction
system.cpu.op_class::IntAlu                         0                       # Class of executed instruction
system.cpu.op_class::IntMult                        0                       # Class of executed instruction
system.cpu.op_class::IntDiv                         0                       # Class of executed instruction
system.cpu.op_class::FloatAdd                       0                       # Class of executed instruction
system.cpu.op_class::FloatCmp                       0                       # Class of executed instruction
system.cpu.op_class::FloatCvt                       0                       # Class of executed instruction
system.cpu.op_class::FloatMult                      0                       # Class of executed instruction
system.cpu.op_class::FloatMultAcc                   0                       # Class of executed instruction
system.cpu.op_class::FloatDiv                       0                       # Class of executed instruction
system.cpu.op_class::FloatMisc                      0                       # Class of executed instruction
system.cpu.op_class::FloatSqrt                      0                       # Class of executed instruction
system.cpu.op_class::SimdAdd                        0                       # Class of executed instruction
system.cpu.op_class::SimdAddAcc                     0                       # Class of executed instruction
system.cpu.op_class::SimdAlu                        0                       # Class of executed instruction
system.cpu.op_class::SimdCmp                        0                       # Class of executed instruction
system.cpu.op_class::SimdCvt                        0                       # Class of executed instruction
system.cpu.op_class::SimdMisc                       0                       # Class of executed instruction
system.cpu.op_class::SimdMult                       0                       # Class of executed instruction
system.cpu.op_class::SimdMultAcc                    0                       # Class of executed instruction
system.cpu.op_class::SimdShift                      0                       # Class of executed instruction
system.cpu.op_class::SimdShiftAcc                   0                       # Class of executed instruction
system.cpu.op_class::SimdDiv                        0                       # Class of executed instruction
system.cpu.op_class::SimdSqrt                       0                       # Class of executed instruction
system.cpu.op_class::SimdFloatAdd                   0                       # Class of executed instruction
system.cpu.op_class::SimdFloatAlu                   0                       # Class of executed instruction
system.cpu.op_class::SimdFloatCmp                   0                       # Class of executed instruction
system.cpu.op_class::SimdFloatCvt                   0                       # Class of executed instruction
system.cpu.op_class::SimdFloatDiv                   0                       # Class of executed instruction
system.cpu.op_class::SimdFloatMisc                  0                       # Class of executed instruction
system.cpu.op_class::SimdFloatMult                  0                       # Class of executed instruction
system.cpu.op_class::SimdFloatMultAcc               0                       # Class of executed instruction
system.cpu.op_class::SimdFloatSqrt                  0                       # Class of executed instruction
system.cpu.op_class::SimdReduceAdd                  0                       # Class of executed instruction
system.cpu.op_class::SimdReduceAlu                  0                       # Class of executed instruction
system.cpu.op_class::SimdReduceCmp                  0                       # Class of executed instruction
system.cpu.op_class::SimdFloatReduceAdd             0                       # Class of executed instruction
system.cpu.op_class::SimdFloatReduceCmp             0                       # Class of executed instruction
system.cpu.op_class::SimdAes                        0                       # Class of executed instruction
system.cpu.op_class::SimdAesMix                     0                       # Class of executed instruction
system.cpu.op_class::SimdSha1Hash                   0                       # Class of executed instruction
system.cpu.op_class::SimdSha1Hash2                  0                       # Class of executed instruction
system.cpu.op_class::SimdSha256Hash                 0                       # Class of executed instruction
system.cpu.op_class::SimdSha256Hash2                0                       # Class of executed instruction
system.cpu.op_class::SimdShaSigma2                  0                       # Class of executed instruction
system.cpu.op_class::SimdShaSigma3                  0                       # Class of executed instruction
system.cpu.op_class::SimdPredAlu                    0                       # Class of executed instruction
system.cpu.op_class::MemRead                        0                       # Class of executed instruction
system.cpu.op_class::MemWrite                       0                       # Class of executed instruction
system.cpu.op_class::FloatMemRead                   0                       # Class of executed instruction
system.cpu.op_class::FloatMemWrite                  0                       # Class of executed instruction
system.cpu.op_class::IprAccess                      0                       # Class of executed instruction
system.cpu.op_class::InstPrefetch                   0                       # Class of executed instruction
system.cpu.op_class::total                          0                       # Class of executed instruction
system.cpu.workload.numSyscalls                     8                       # Number of system calls
system.membus.snoop_filter.hit_multi_requests            0                       # Number of requests hitting in the snoop filter with multiple (>1) holders of the requested data.
system.membus.snoop_filter.hit_multi_snoops            0                       # Number of snoops hitting in the snoop filter with multiple (>1) holders of the requested data.
system.membus.snoop_filter.hit_single_requests        37269                       # Number of requests hitting in the snoop filter with a single holder of the requested data.
system.membus.snoop_filter.hit_single_snoops            0                       # Number of snoops hitting in the snoop filter with a single holder of the requested data.
system.membus.snoop_filter.tot_requests         77350                       # Total number of requests made to the snoop filter.
system.membus.snoop_filter.tot_snoops               0                       # Total number of snoops made to the snoop filter.
system.switch_cpus.cc_regfile_reads           8750520                       # number of cc regfile reads
system.switch_cpus.cc_regfile_writes          8414839                       # number of cc regfile writes
system.switch_cpus.committedInsts            10000000                       # Number of Instructions Simulated
system.switch_cpus.committedOps              15783158                       # Number of Ops (including micro ops) Simulated
system.switch_cpus.cpi                       1.229447                       # CPI: Cycles Per Instruction
system.switch_cpus.cpi_total                 1.229447                       # CPI: Total CPI of All Threads
system.switch_cpus.fp_regfile_reads            966038                       # number of floating regfile reads
system.switch_cpus.fp_regfile_writes           529546                       # number of floating regfile writes
system.switch_cpus.idleCycles                   87171                       # Total number of cycles that the CPU has spent unscheduled due to idling
system.switch_cpus.iew.branchMispredicts        49116                       # Number of branch mispredicts detected at execute
system.switch_cpus.iew.exec_branches          1233217                       # Number of branches executed
system.switch_cpus.iew.exec_nop                     0                       # number of nop insts executed
system.switch_cpus.iew.exec_rate             1.374782                       # Inst execution rate
system.switch_cpus.iew.exec_refs              4483024                       # number of memory reference insts executed
system.switch_cpus.iew.exec_stores            1547992                       # Number of stores executed
system.switch_cpus.iew.exec_swp                     0                       # number of swp insts executed
system.switch_cpus.iew.iewBlockCycles          582435                       # Number of cycles IEW is blocking
system.switch_cpus.iew.iewDispLoadInsts       3051795                       # Number of dispatched load instructions
system.switch_cpus.iew.iewDispNonSpecInsts          695                       # Number of dispatched non-speculative instructions
system.switch_cpus.iew.iewDispSquashedInsts         1269                       # Number of squashed instructions skipped by dispatch
system.switch_cpus.iew.iewDispStoreInsts      1567133                       # Number of dispatched store instructions
system.switch_cpus.iew.iewDispatchedInsts     17659722                       # Number of instructions dispatched to IQ
system.switch_cpus.iew.iewExecLoadInsts       2935032                       # Number of load instructions executed
system.switch_cpus.iew.iewExecSquashedInsts        86772                       # Number of squashed instructions skipped in execute
system.switch_cpus.iew.iewExecutedInsts      16902216                       # Number of executed instructions
system.switch_cpus.iew.iewIQFullEvents           4520                       # Number of times the IQ has become full, causing a stall
system.switch_cpus.iew.iewIdleCycles                0                       # Number of cycles IEW is idle
system.switch_cpus.iew.iewLSQFullEvents       2546788                       # Number of times the LSQ has become full, causing a stall
system.switch_cpus.iew.iewSquashCycles          45041                       # Number of cycles IEW is squashing
system.switch_cpus.iew.iewUnblockCycles       2553279                       # Number of cycles IEW is unblocking
system.switch_cpus.iew.memOrderViolationEvents          218                       # Number of memory order violations
system.switch_cpus.iew.predictedNotTakenIncorrect        25958                       # Number of branches that were predicted not taken incorrectly
system.switch_cpus.iew.predictedTakenIncorrect        23158                       # Number of branches that were predicted taken incorrectly
system.switch_cpus.iew.wb_consumers          22255327                       # num instructions consuming a value
system.switch_cpus.iew.wb_count              16810198                       # cumulative count of insts written-back
system.switch_cpus.iew.wb_fanout             0.554739                       # average fanout of values written-back
system.switch_cpus.iew.wb_producers          12345901                       # num instructions producing a value
system.switch_cpus.iew.wb_rate               1.367297                       # insts written-back per cycle
system.switch_cpus.iew.wb_sent               16853938                       # cumulative count of insts sent to commit
system.switch_cpus.int_regfile_reads         28634244                       # number of integer regfile reads
system.switch_cpus.int_regfile_writes        13388971                       # number of integer regfile writes
system.switch_cpus.ipc                       0.813374                       # IPC: Instructions Per Cycle
system.switch_cpus.ipc_total                 0.813374                       # IPC: Total IPC of All Threads
system.switch_cpus.iq.FU_type_0::No_OpClass       207473      1.22%      1.22% # Type of FU issued
system.switch_cpus.iq.FU_type_0::IntAlu      11777539     69.32%     70.55% # Type of FU issued
system.switch_cpus.iq.FU_type_0::IntMult            7      0.00%     70.55% # Type of FU issued
system.switch_cpus.iq.FU_type_0::IntDiv         23015      0.14%     70.68% # Type of FU issued
system.switch_cpus.iq.FU_type_0::FloatAdd       145580      0.86%     71.54% # Type of FU issued
system.switch_cpus.iq.FU_type_0::FloatCmp            0      0.00%     71.54% # Type of FU issued
system.switch_cpus.iq.FU_type_0::FloatCvt         1204      0.01%     71.55% # Type of FU issued
system.switch_cpus.iq.FU_type_0::FloatMult            0      0.00%     71.55% # Type of FU issued
system.switch_cpus.iq.FU_type_0::FloatMultAcc            0      0.00%     71.55% # Type of FU issued
system.switch_cpus.iq.FU_type_0::FloatDiv            0      0.00%     71.55% # Type of FU issued
system.switch_cpus.iq.FU_type_0::FloatMisc            0      0.00%     71.55% # Type of FU issued
system.switch_cpus.iq.FU_type_0::FloatSqrt            0      0.00%     71.55% # Type of FU issued
system.switch_cpus.iq.FU_type_0::SimdAdd         4437      0.03%     71.57% # Type of FU issued
system.switch_cpus.iq.FU_type_0::SimdAddAcc            0      0.00%     71.57% # Type of FU issued
system.switch_cpus.iq.FU_type_0::SimdAlu        19631      0.12%     71.69% # Type of FU issued
system.switch_cpus.iq.FU_type_0::SimdCmp            0      0.00%     71.69% # Type of FU issued
system.switch_cpus.iq.FU_type_0::SimdCvt         9946      0.06%     71.75% # Type of FU issued
system.switch_cpus.iq.FU_type_0::SimdMisc       284001      1.67%     73.42% # Type of FU issued
system.switch_cpus.iq.FU_type_0::SimdMult            0      0.00%     73.42% # Type of FU issued
system.switch_cpus.iq.FU_type_0::SimdMultAcc            0      0.00%     73.42% # Type of FU issued
system.switch_cpus.iq.FU_type_0::SimdShift         3756      0.02%     73.44% # Type of FU issued
system.switch_cpus.iq.FU_type_0::SimdShiftAcc            0      0.00%     73.44% # Type of FU issued
system.switch_cpus.iq.FU_type_0::SimdDiv            0      0.00%     73.44% # Type of FU issued
system.switch_cpus.iq.FU_type_0::SimdSqrt            0      0.00%     73.44% # Type of FU issued
system.switch_cpus.iq.FU_type_0::SimdFloatAdd            0      0.00%     73.44% # Type of FU issued
system.switch_cpus.iq.FU_type_0::SimdFloatAlu            0      0.00%     73.44% # Type of FU issued
system.switch_cpus.iq.FU_type_0::SimdFloatCmp            0      0.00%     73.44% # Type of FU issued
system.switch_cpus.iq.FU_type_0::SimdFloatCvt         6422      0.04%     73.48% # Type of FU issued
system.switch_cpus.iq.FU_type_0::SimdFloatDiv            0      0.00%     73.48% # Type of FU issued
system.switch_cpus.iq.FU_type_0::SimdFloatMisc            0      0.00%     73.48% # Type of FU issued
system.switch_cpus.iq.FU_type_0::SimdFloatMult         3468      0.02%     73.50% # Type of FU issued
system.switch_cpus.iq.FU_type_0::SimdFloatMultAcc            0      0.00%     73.50% # Type of FU issued
system.switch_cpus.iq.FU_type_0::SimdFloatSqrt            0      0.00%     73.50% # Type of FU issued
system.switch_cpus.iq.FU_type_0::SimdReduceAdd            0      0.00%     73.50% # Type of FU issued
system.switch_cpus.iq.FU_type_0::SimdReduceAlu            0      0.00%     73.50% # Type of FU issued
system.switch_cpus.iq.FU_type_0::SimdReduceCmp            0      0.00%     73.50% # Type of FU issued
system.switch_cpus.iq.FU_type_0::SimdFloatReduceAdd            0      0.00%     73.50% # Type of FU issued
system.switch_cpus.iq.FU_type_0::SimdFloatReduceCmp            0      0.00%     73.50% # Type of FU issued
system.switch_cpus.iq.FU_type_0::SimdAes            0      0.00%     73.50% # Type of FU issued
system.switch_cpus.iq.FU_type_0::SimdAesMix            0      0.00%     73.50% # Type of FU issued
system.switch_cpus.iq.FU_type_0::SimdSha1Hash            0      0.00%     73.50% # Type of FU issued
system.switch_cpus.iq.FU_type_0::SimdSha1Hash2            0      0.00%     73.50% # Type of FU issued
system.switch_cpus.iq.FU_type_0::SimdSha256Hash            0      0.00%     73.50% # Type of FU issued
system.switch_cpus.iq.FU_type_0::SimdSha256Hash2            0      0.00%     73.50% # Type of FU issued
system.switch_cpus.iq.FU_type_0::SimdShaSigma2            0      0.00%     73.50% # Type of FU issued
system.switch_cpus.iq.FU_type_0::SimdShaSigma3            0      0.00%     73.50% # Type of FU issued
system.switch_cpus.iq.FU_type_0::SimdPredAlu            0      0.00%     73.50% # Type of FU issued
system.switch_cpus.iq.FU_type_0::MemRead      2924992     17.22%     90.71% # Type of FU issued
system.switch_cpus.iq.FU_type_0::MemWrite      1193028      7.02%     97.74% # Type of FU issued
system.switch_cpus.iq.FU_type_0::FloatMemRead        25756      0.15%     97.89% # Type of FU issued
system.switch_cpus.iq.FU_type_0::FloatMemWrite       358734      2.11%    100.00% # Type of FU issued
system.switch_cpus.iq.FU_type_0::IprAccess            0      0.00%    100.00% # Type of FU issued
system.switch_cpus.iq.FU_type_0::InstPrefetch            0      0.00%    100.00% # Type of FU issued
system.switch_cpus.iq.FU_type_0::total       16988989                       # Type of FU issued
system.switch_cpus.iq.fp_alu_accesses          938143                       # Number of floating point alu accesses
system.switch_cpus.iq.fp_inst_queue_reads      1838393                       # Number of floating instruction queue reads
system.switch_cpus.iq.fp_inst_queue_wakeup_accesses       879601                       # Number of floating instruction queue wakeup accesses
system.switch_cpus.iq.fp_inst_queue_writes       982094                       # Number of floating instruction queue writes
system.switch_cpus.iq.fu_busy_cnt              218488                       # FU busy when requested
system.switch_cpus.iq.fu_busy_rate           0.012861                       # FU busy rate (busy events/executed inst)
system.switch_cpus.iq.fu_full::No_OpClass            0      0.00%      0.00% # attempts to use FU when none available
system.switch_cpus.iq.fu_full::IntAlu           64905     29.71%     29.71% # attempts to use FU when none available
system.switch_cpus.iq.fu_full::IntMult              0      0.00%     29.71% # attempts to use FU when none available
system.switch_cpus.iq.fu_full::IntDiv               0      0.00%     29.71% # attempts to use FU when none available
system.switch_cpus.iq.fu_full::FloatAdd             0      0.00%     29.71% # attempts to use FU when none available
system.switch_cpus.iq.fu_full::FloatCmp             0      0.00%     29.71% # attempts to use FU when none available
system.switch_cpus.iq.fu_full::FloatCvt             1      0.00%     29.71% # attempts to use FU when none available
system.switch_cpus.iq.fu_full::FloatMult            0      0.00%     29.71% # attempts to use FU when none available
system.switch_cpus.iq.fu_full::FloatMultAcc            0      0.00%     29.71% # attempts to use FU when none available
system.switch_cpus.iq.fu_full::FloatDiv             0      0.00%     29.71% # attempts to use FU when none available
system.switch_cpus.iq.fu_full::FloatMisc            0      0.00%     29.71% # attempts to use FU when none available
system.switch_cpus.iq.fu_full::FloatSqrt            0      0.00%     29.71% # attempts to use FU when none available
system.switch_cpus.iq.fu_full::SimdAdd              0      0.00%     29.71% # attempts to use FU when none available
system.switch_cpus.iq.fu_full::SimdAddAcc            0      0.00%     29.71% # attempts to use FU when none available
system.switch_cpus.iq.fu_full::SimdAlu            119      0.05%     29.76% # attempts to use FU when none available
system.switch_cpus.iq.fu_full::SimdCmp              0      0.00%     29.76% # attempts to use FU when none available
system.switch_cpus.iq.fu_full::SimdCvt            456      0.21%     29.97% # attempts to use FU when none available
system.switch_cpus.iq.fu_full::SimdMisc         33966     15.55%     45.52% # attempts to use FU when none available
system.switch_cpus.iq.fu_full::SimdMult             0      0.00%     45.52% # attempts to use FU when none available
system.switch_cpus.iq.fu_full::SimdMultAcc            0      0.00%     45.52% # attempts to use FU when none available
system.switch_cpus.iq.fu_full::SimdShift          127      0.06%     45.57% # attempts to use FU when none available
system.switch_cpus.iq.fu_full::SimdShiftAcc            0      0.00%     45.57% # attempts to use FU when none available
system.switch_cpus.iq.fu_full::SimdDiv              0      0.00%     45.57% # attempts to use FU when none available
system.switch_cpus.iq.fu_full::SimdSqrt             0      0.00%     45.57% # attempts to use FU when none available
system.switch_cpus.iq.fu_full::SimdFloatAdd            0      0.00%     45.57% # attempts to use FU when none available
system.switch_cpus.iq.fu_full::SimdFloatAlu            0      0.00%     45.57% # attempts to use FU when none available
system.switch_cpus.iq.fu_full::SimdFloatCmp            0      0.00%     45.57% # attempts to use FU when none available
system.switch_cpus.iq.fu_full::SimdFloatCvt            0      0.00%     45.57% # attempts to use FU when none available
system.switch_cpus.iq.fu_full::SimdFloatDiv            0      0.00%     45.57% # attempts to use FU when none available
system.switch_cpus.iq.fu_full::SimdFloatMisc            0      0.00%     45.57% # attempts to use FU when none available
system.switch_cpus.iq.fu_full::SimdFloatMult            0      0.00%     45.57% # attempts to use FU when none available
system.switch_cpus.iq.fu_full::SimdFloatMultAcc            0      0.00%     45.57% # attempts to use FU when none available
system.switch_cpus.iq.fu_full::SimdFloatSqrt            0      0.00%     45.57% # attempts to use FU when none available
system.switch_cpus.iq.fu_full::SimdReduceAdd            0      0.00%     45.57% # attempts to use FU when none available
system.switch_cpus.iq.fu_full::SimdReduceAlu            0      0.00%     45.57% # attempts to use FU when none available
system.switch_cpus.iq.fu_full::SimdReduceCmp            0      0.00%     45.57% # attempts to use FU when none available
system.switch_cpus.iq.fu_full::SimdFloatReduceAdd            0      0.00%     45.57% # attempts to use FU when none available
system.switch_cpus.iq.fu_full::SimdFloatReduceCmp            0      0.00%     45.57% # attempts to use FU when none available
system.switch_cpus.iq.fu_full::SimdAes              0      0.00%     45.57% # attempts to use FU when none available
system.switch_cpus.iq.fu_full::SimdAesMix            0      0.00%     45.57% # attempts to use FU when none available
system.switch_cpus.iq.fu_full::SimdSha1Hash            0      0.00%     45.57% # attempts to use FU when none available
system.switch_cpus.iq.fu_full::SimdSha1Hash2            0      0.00%     45.57% # attempts to use FU when none available
system.switch_cpus.iq.fu_full::SimdSha256Hash            0      0.00%     45.57% # attempts to use FU when none available
system.switch_cpus.iq.fu_full::SimdSha256Hash2            0      0.00%     45.57% # attempts to use FU when none available
system.switch_cpus.iq.fu_full::SimdShaSigma2            0      0.00%     45.57% # attempts to use FU when none available
system.switch_cpus.iq.fu_full::SimdShaSigma3            0      0.00%     45.57% # attempts to use FU when none available
system.switch_cpus.iq.fu_full::SimdPredAlu            0      0.00%     45.57% # attempts to use FU when none available
system.switch_cpus.iq.fu_full::MemRead         109370     50.06%     95.63% # attempts to use FU when none available
system.switch_cpus.iq.fu_full::MemWrite          6135      2.81%     98.44% # attempts to use FU when none available
system.switch_cpus.iq.fu_full::FloatMemRead          433      0.20%     98.64% # attempts to use FU when none available
system.switch_cpus.iq.fu_full::FloatMemWrite         2976      1.36%    100.00% # attempts to use FU when none available
system.switch_cpus.iq.fu_full::IprAccess            0      0.00%    100.00% # attempts to use FU when none available
system.switch_cpus.iq.fu_full::InstPrefetch            0      0.00%    100.00% # attempts to use FU when none available
system.switch_cpus.iq.int_alu_accesses       16061861                       # Number of integer alu accesses
system.switch_cpus.iq.int_inst_queue_reads     44569119                       # Number of integer instruction queue reads
system.switch_cpus.iq.int_inst_queue_wakeup_accesses     15930597                       # Number of integer instruction queue wakeup accesses
system.switch_cpus.iq.int_inst_queue_writes     18554331                       # Number of integer instruction queue writes
system.switch_cpus.iq.iqInstsAdded           17658969                       # Number of instructions added to the IQ (excludes non-spec)
system.switch_cpus.iq.iqInstsIssued          16988989                       # Number of instructions issued
system.switch_cpus.iq.iqNonSpecInstsAdded          753                       # Number of non-speculative instructions added to the IQ
system.switch_cpus.iq.iqSquashedInstsExamined      1876487                       # Number of squashed instructions iterated over during squash; mainly for profiling
system.switch_cpus.iq.iqSquashedInstsIssued         3746                       # Number of squashed instructions issued
system.switch_cpus.iq.iqSquashedNonSpecRemoved           72                       # Number of squashed non-spec instructions that were removed
system.switch_cpus.iq.iqSquashedOperandsExamined      3191171                       # Number of squashed operands that are examined and possibly removed from graph
system.switch_cpus.iq.issued_per_cycle::samples     12207301                       # Number of insts issued each cycle
system.switch_cpus.iq.issued_per_cycle::mean     1.391707                       # Number of insts issued each cycle
system.switch_cpus.iq.issued_per_cycle::stdev     1.954773                       # Number of insts issued each cycle
system.switch_cpus.iq.issued_per_cycle::underflows            0      0.00%      0.00% # Number of insts issued each cycle
system.switch_cpus.iq.issued_per_cycle::0      6628791     54.30%     54.30% # Number of insts issued each cycle
system.switch_cpus.iq.issued_per_cycle::1      1407791     11.53%     65.83% # Number of insts issued each cycle
system.switch_cpus.iq.issued_per_cycle::2      1169447      9.58%     75.41% # Number of insts issued each cycle
system.switch_cpus.iq.issued_per_cycle::3      1031395      8.45%     83.86% # Number of insts issued each cycle
system.switch_cpus.iq.issued_per_cycle::4       749588      6.14%     90.00% # Number of insts issued each cycle
system.switch_cpus.iq.issued_per_cycle::5       519086      4.25%     94.26% # Number of insts issued each cycle
system.switch_cpus.iq.issued_per_cycle::6       451540      3.70%     97.95% # Number of insts issued each cycle
system.switch_cpus.iq.issued_per_cycle::7       152207      1.25%     99.20% # Number of insts issued each cycle
system.switch_cpus.iq.issued_per_cycle::8        97456      0.80%    100.00% # Number of insts issued each cycle
system.switch_cpus.iq.issued_per_cycle::overflows            0      0.00%    100.00% # Number of insts issued each cycle
system.switch_cpus.iq.issued_per_cycle::min_value            0                       # Number of insts issued each cycle
system.switch_cpus.iq.issued_per_cycle::max_value            8                       # Number of insts issued each cycle
system.switch_cpus.iq.issued_per_cycle::total     12207301                       # Number of insts issued each cycle
system.switch_cpus.iq.rate                   1.381840                       # Inst issue rate
system.switch_cpus.iq.vec_alu_accesses              0                       # Number of vector alu accesses
system.switch_cpus.iq.vec_inst_queue_reads            0                       # Number of vector instruction queue reads
system.switch_cpus.iq.vec_inst_queue_wakeup_accesses            0                       # Number of vector instruction queue wakeup accesses
system.switch_cpus.iq.vec_inst_queue_writes            0                       # Number of vector instruction queue writes
system.switch_cpus.memDep0.conflictingLoads       268413                       # Number of conflicting loads.
system.switch_cpus.memDep0.conflictingStores        95949                       # Number of conflicting stores.
system.switch_cpus.memDep0.insertedLoads      3051795                       # Number of loads inserted to the mem dependence unit.
system.switch_cpus.memDep0.insertedStores      1567133                       # Number of stores inserted to the mem dependence unit.
system.switch_cpus.misc_regfile_reads         6955925                       # number of misc regfile reads
system.switch_cpus.misc_regfile_writes            657                       # number of misc regfile writes
system.switch_cpus.numCycles                 12294472                       # number of cpu cycles simulated
system.switch_cpus.numWorkItemsCompleted            0                       # number of work items this cpu completed
system.switch_cpus.numWorkItemsStarted              0                       # number of work items this cpu started
system.switch_cpus.timesIdled                     785                       # Number of times that the entire CPU went into an idle state and unscheduled itself
system.tol2bus.snoop_filter.hit_multi_requests           12                       # Number of requests hitting in the snoop filter with multiple (>1) holders of the requested data.
system.tol2bus.snoop_filter.hit_multi_snoops            0                       # Number of snoops hitting in the snoop filter with multiple (>1) holders of the requested data.
system.tol2bus.snoop_filter.hit_single_requests        44606                       # Number of requests hitting in the snoop filter with a single holder of the requested data.
system.tol2bus.snoop_filter.hit_single_snoops         1338                       # Number of snoops hitting in the snoop filter with a single holder of the requested data.
system.tol2bus.snoop_filter.tot_requests        89539                       # Total number of requests made to the snoop filter.
system.tol2bus.snoop_filter.tot_snoops           1338                       # Total number of snoops made to the snoop filter.
system.clk_domain.clock                          1000                       # Clock period in ticks
system.cpu.branchPred.lookups                       0                       # Number of BP lookups
system.cpu.branchPred.condPredicted                 0                       # Number of conditional branches predicted
system.cpu.branchPred.condIncorrect                 0                       # Number of conditional branches incorrect
system.cpu.branchPred.BTBLookups                    0                       # Number of BTB lookups
system.cpu.branchPred.BTBHits                       0                       # Number of BTB hits
system.cpu.branchPred.BTBHitPct                   nan                       # BTB Hit Percentage
system.cpu.branchPred.RASUsed                       0                       # Number of times the RAS was used to get a target.
system.cpu.branchPred.RASIncorrect                  0                       # Number of incorrect RAS predictions.
system.cpu.branchPred.indirectLookups               0                       # Number of indirect predictor lookups.
system.cpu.branchPred.indirectHits                  0                       # Number of indirect target hits.
system.cpu.branchPred.indirectMisses                0                       # Number of indirect misses.
system.cpu.branchPred.indirectMispredicted            0                       # Number of mispredicted indirect branches.
system.cpu.branchPred.tage.longestMatchProviderCorrect            0                       # Number of times TAGE Longest Match is the provider and the prediction is correct
system.cpu.branchPred.tage.altMatchProviderCorrect            0                       # Number of times TAGE Alt Match is the provider and the prediction is correct
system.cpu.branchPred.tage.bimodalAltMatchProviderCorrect            0                       # Number of times TAGE Alt Match is the bimodal and it is the provider and the prediction is correct
system.cpu.branchPred.tage.bimodalProviderCorrect            0                       # Number of times there are no hits on the TAGE tables and the bimodal prediction is correct
system.cpu.branchPred.tage.longestMatchProviderWrong            0                       # Number of times TAGE Longest Match is the provider and the prediction is wrong
system.cpu.branchPred.tage.altMatchProviderWrong            0                       # Number of times TAGE Alt Match is the provider and the prediction is wrong
system.cpu.branchPred.tage.bimodalAltMatchProviderWrong            0                       # Number of times TAGE Alt Match is the bimodal and it is the provider and the prediction is wrong
system.cpu.branchPred.tage.bimodalProviderWrong            0                       # Number of times there are no hits on the TAGE tables and the bimodal prediction is wrong
system.cpu.branchPred.tage.altMatchProviderWouldHaveHit            0                       # Number of times TAGE Longest Match is the provider, the prediction is wrong and Alt Match prediction was correct
system.cpu.branchPred.tage.longestMatchProviderWouldHaveHit            0                       # Number of times TAGE Alt Match is the provider, the prediction is wrong and Longest Match prediction was correct
system.cpu.branchPred.tage.longestMatchProvider::0            0                       # TAGE provider for longest match
system.cpu.branchPred.tage.longestMatchProvider::1            0                       # TAGE provider for longest match
system.cpu.branchPred.tage.longestMatchProvider::2            0                       # TAGE provider for longest match
system.cpu.branchPred.tage.longestMatchProvider::3            0                       # TAGE provider for longest match
system.cpu.branchPred.tage.longestMatchProvider::4            0                       # TAGE provider for longest match
system.cpu.branchPred.tage.longestMatchProvider::5            0                       # TAGE provider for longest match
system.cpu.branchPred.tage.longestMatchProvider::6            0                       # TAGE provider for longest match
system.cpu.branchPred.tage.longestMatchProvider::7            0                       # TAGE provider for longest match
system.cpu.branchPred.tage.altMatchProvider::0            0                       # TAGE provider for alt match
system.cpu.branchPred.tage.altMatchProvider::1            0                       # TAGE provider for alt match
system.cpu.branchPred.tage.altMatchProvider::2            0                       # TAGE provider for alt match
system.cpu.branchPred.tage.altMatchProvider::3            0                       # TAGE provider for alt match
system.cpu.branchPred.tage.altMatchProvider::4            0                       # TAGE provider for alt match
system.cpu.branchPred.tage.altMatchProvider::5            0                       # TAGE provider for alt match
system.cpu.branchPred.tage.altMatchProvider::6            0                       # TAGE provider for alt match
system.cpu.branchPred.tage.altMatchProvider::7            0                       # TAGE provider for alt match
system.cpu.dcache.demand_hits::.switch_cpus.data      3451804                       # number of demand (read+write) hits
system.cpu.dcache.demand_hits::total          3451804                       # number of demand (read+write) hits
system.cpu.dcache.overall_hits::.switch_cpus.data      3451804                       # number of overall hits
system.cpu.dcache.overall_hits::total         3451804                       # number of overall hits
system.cpu.dcache.demand_misses::.switch_cpus.data        66809                       # number of demand (read+write) misses
system.cpu.dcache.demand_misses::total          66809                       # number of demand (read+write) misses
system.cpu.dcache.overall_misses::.switch_cpus.data        66809                       # number of overall misses
system.cpu.dcache.overall_misses::total         66809                       # number of overall misses
system.cpu.dcache.demand_miss_latency::.switch_cpus.data   4573457998                       # number of demand (read+write) miss cycles
system.cpu.dcache.demand_miss_latency::total   4573457998                       # number of demand (read+write) miss cycles
system.cpu.dcache.overall_miss_latency::.switch_cpus.data   4573457998                       # number of overall miss cycles
system.cpu.dcache.overall_miss_latency::total   4573457998                       # number of overall miss cycles
system.cpu.dcache.demand_accesses::.switch_cpus.data      3518613                       # number of demand (read+write) accesses
system.cpu.dcache.demand_accesses::total      3518613                       # number of demand (read+write) accesses
system.cpu.dcache.overall_accesses::.switch_cpus.data      3518613                       # number of overall (read+write) accesses
system.cpu.dcache.overall_accesses::total      3518613                       # number of overall (read+write) accesses
system.cpu.dcache.demand_miss_rate::.switch_cpus.data     0.018987                       # miss rate for demand accesses
system.cpu.dcache.demand_miss_rate::total     0.018987                       # miss rate for demand accesses
system.cpu.dcache.overall_miss_rate::.switch_cpus.data     0.018987                       # miss rate for overall accesses
system.cpu.dcache.overall_miss_rate::total     0.018987                       # miss rate for overall accesses
system.cpu.dcache.demand_avg_miss_latency::.switch_cpus.data 68455.717014                       # average overall miss latency
system.cpu.dcache.demand_avg_miss_latency::total 68455.717014                       # average overall miss latency
system.cpu.dcache.overall_avg_miss_latency::.switch_cpus.data 68455.717014                       # average overall miss latency
system.cpu.dcache.overall_avg_miss_latency::total 68455.717014                       # average overall miss latency
system.cpu.dcache.blocked_cycles::no_mshrs         5081                       # number of cycles access was blocked
system.cpu.dcache.blocked_cycles::no_targets           84                       # number of cycles access was blocked
system.cpu.dcache.blocked::no_mshrs               168                       # number of cycles access was blocked
system.cpu.dcache.blocked::no_targets               4                       # number of cycles access was blocked
system.cpu.dcache.avg_blocked_cycles::no_mshrs    30.244048                       # average number of cycles each access was blocked
system.cpu.dcache.avg_blocked_cycles::no_targets           21                       # average number of cycles each access was blocked
system.cpu.dcache.writebacks::.writebacks        35122                       # number of writebacks
system.cpu.dcache.writebacks::total             35122                       # number of writebacks
system.cpu.dcache.demand_mshr_hits::.switch_cpus.data        23053                       # number of demand (read+write) MSHR hits
system.cpu.dcache.demand_mshr_hits::total        23053                       # number of demand (read+write) MSHR hits
system.cpu.dcache.overall_mshr_hits::.switch_cpus.data        23053                       # number of overall MSHR hits
system.cpu.dcache.overall_mshr_hits::total        23053                       # number of overall MSHR hits
system.cpu.dcache.demand_mshr_misses::.switch_cpus.data        43756                       # number of demand (read+write) MSHR misses
system.cpu.dcache.demand_mshr_misses::total        43756                       # number of demand (read+write) MSHR misses
system.cpu.dcache.overall_mshr_misses::.switch_cpus.data        43756                       # number of overall MSHR misses
system.cpu.dcache.overall_mshr_misses::total        43756                       # number of overall MSHR misses
system.cpu.dcache.demand_mshr_miss_latency::.switch_cpus.data   3209542498                       # number of demand (read+write) MSHR miss cycles
system.cpu.dcache.demand_mshr_miss_latency::total   3209542498                       # number of demand (read+write) MSHR miss cycles
system.cpu.dcache.overall_mshr_miss_latency::.switch_cpus.data   3209542498                       # number of overall MSHR miss cycles
system.cpu.dcache.overall_mshr_miss_latency::total   3209542498                       # number of overall MSHR miss cycles
system.cpu.dcache.demand_mshr_miss_rate::.switch_cpus.data     0.012436                       # mshr miss rate for demand accesses
system.cpu.dcache.demand_mshr_miss_rate::total     0.012436                       # mshr miss rate for demand accesses
system.cpu.dcache.overall_mshr_miss_rate::.switch_cpus.data     0.012436                       # mshr miss rate for overall accesses
system.cpu.dcache.overall_mshr_miss_rate::total     0.012436                       # mshr miss rate for overall accesses
system.cpu.dcache.demand_avg_mshr_miss_latency::.switch_cpus.data 73350.911829                       # average overall mshr miss latency
system.cpu.dcache.demand_avg_mshr_miss_latency::total 73350.911829                       # average overall mshr miss latency
system.cpu.dcache.overall_avg_mshr_miss_latency::.switch_cpus.data 73350.911829                       # average overall mshr miss latency
system.cpu.dcache.overall_avg_mshr_miss_latency::total 73350.911829                       # average overall mshr miss latency
system.cpu.dcache.replacements                  43756                       # number of replacements
system.cpu.dcache.ReadReq_hits::.switch_cpus.data      1993317                       # number of ReadReq hits
system.cpu.dcache.ReadReq_hits::total         1993317                       # number of ReadReq hits
system.cpu.dcache.ReadReq_misses::.switch_cpus.data        31977                       # number of ReadReq misses
system.cpu.dcache.ReadReq_misses::total         31977                       # number of ReadReq misses
system.cpu.dcache.ReadReq_miss_latency::.switch_cpus.data   1756691500                       # number of ReadReq miss cycles
system.cpu.dcache.ReadReq_miss_latency::total   1756691500                       # number of ReadReq miss cycles
system.cpu.dcache.ReadReq_accesses::.switch_cpus.data      2025294                       # number of ReadReq accesses(hits+misses)
system.cpu.dcache.ReadReq_accesses::total      2025294                       # number of ReadReq accesses(hits+misses)
system.cpu.dcache.ReadReq_miss_rate::.switch_cpus.data     0.015789                       # miss rate for ReadReq accesses
system.cpu.dcache.ReadReq_miss_rate::total     0.015789                       # miss rate for ReadReq accesses
system.cpu.dcache.ReadReq_avg_miss_latency::.switch_cpus.data 54936.094693                       # average ReadReq miss latency
system.cpu.dcache.ReadReq_avg_miss_latency::total 54936.094693                       # average ReadReq miss latency
system.cpu.dcache.ReadReq_mshr_hits::.switch_cpus.data        23051                       # number of ReadReq MSHR hits
system.cpu.dcache.ReadReq_mshr_hits::total        23051                       # number of ReadReq MSHR hits
system.cpu.dcache.ReadReq_mshr_misses::.switch_cpus.data         8926                       # number of ReadReq MSHR misses
system.cpu.dcache.ReadReq_mshr_misses::total         8926                       # number of ReadReq MSHR misses
system.cpu.dcache.ReadReq_mshr_miss_latency::.switch_cpus.data    427684000                       # number of ReadReq MSHR miss cycles
system.cpu.dcache.ReadReq_mshr_miss_latency::total    427684000                       # number of ReadReq MSHR miss cycles
system.cpu.dcache.ReadReq_mshr_miss_rate::.switch_cpus.data     0.004407                       # mshr miss rate for ReadReq accesses
system.cpu.dcache.ReadReq_mshr_miss_rate::total     0.004407                       # mshr miss rate for ReadReq accesses
system.cpu.dcache.ReadReq_avg_mshr_miss_latency::.switch_cpus.data 47914.407349                       # average ReadReq mshr miss latency
system.cpu.dcache.ReadReq_avg_mshr_miss_latency::total 47914.407349                       # average ReadReq mshr miss latency
system.cpu.dcache.WriteReq_hits::.switch_cpus.data      1458487                       # number of WriteReq hits
system.cpu.dcache.WriteReq_hits::total        1458487                       # number of WriteReq hits
system.cpu.dcache.WriteReq_misses::.switch_cpus.data        34832                       # number of WriteReq misses
system.cpu.dcache.WriteReq_misses::total        34832                       # number of WriteReq misses
system.cpu.dcache.WriteReq_miss_latency::.switch_cpus.data   2816766498                       # number of WriteReq miss cycles
system.cpu.dcache.WriteReq_miss_latency::total   2816766498                       # number of WriteReq miss cycles
system.cpu.dcache.WriteReq_accesses::.switch_cpus.data      1493319                       # number of WriteReq accesses(hits+misses)
system.cpu.dcache.WriteReq_accesses::total      1493319                       # number of WriteReq accesses(hits+misses)
system.cpu.dcache.WriteReq_miss_rate::.switch_cpus.data     0.023325                       # miss rate for WriteReq accesses
system.cpu.dcache.WriteReq_miss_rate::total     0.023325                       # miss rate for WriteReq accesses
system.cpu.dcache.WriteReq_avg_miss_latency::.switch_cpus.data 80867.205386                       # average WriteReq miss latency
system.cpu.dcache.WriteReq_avg_miss_latency::total 80867.205386                       # average WriteReq miss latency
system.cpu.dcache.WriteReq_mshr_hits::.switch_cpus.data            2                       # number of WriteReq MSHR hits
system.cpu.dcache.WriteReq_mshr_hits::total            2                       # number of WriteReq MSHR hits
system.cpu.dcache.WriteReq_mshr_misses::.switch_cpus.data        34830                       # number of WriteReq MSHR misses
system.cpu.dcache.WriteReq_mshr_misses::total        34830                       # number of WriteReq MSHR misses
system.cpu.dcache.WriteReq_mshr_miss_latency::.switch_cpus.data   2781858498                       # number of WriteReq MSHR miss cycles
system.cpu.dcache.WriteReq_mshr_miss_latency::total   2781858498                       # number of WriteReq MSHR miss cycles
system.cpu.dcache.WriteReq_mshr_miss_rate::.switch_cpus.data     0.023324                       # mshr miss rate for WriteReq accesses
system.cpu.dcache.WriteReq_mshr_miss_rate::total     0.023324                       # mshr miss rate for WriteReq accesses
system.cpu.dcache.WriteReq_avg_mshr_miss_latency::.switch_cpus.data 79869.609475                       # average WriteReq mshr miss latency
system.cpu.dcache.WriteReq_avg_mshr_miss_latency::total 79869.609475                       # average WriteReq mshr miss latency
system.cpu.dcache.power_state.pwrStateResidencyTicks::UNDEFINED   7196779500                       # Cumulative time (in ticks) in various power states
system.cpu.dcache.tags.tagsinuse                 1024                       # Cycle average of tags in use
system.cpu.dcache.tags.total_refs             3702831                       # Total number of references to valid blocks.
system.cpu.dcache.tags.sampled_refs             44780                       # Sample count of references to valid blocks.
system.cpu.dcache.tags.avg_refs             82.689393                       # Average number of references to valid blocks.
system.cpu.dcache.tags.warmup_cycle                 0                       # Cycle when the warmup percentage was hit.
system.cpu.dcache.tags.occ_blocks::.cpu.data    18.279577                       # Average occupied blocks per requestor
system.cpu.dcache.tags.occ_blocks::.switch_cpus.data  1005.720423                       # Average occupied blocks per requestor
system.cpu.dcache.tags.occ_percent::.cpu.data     0.017851                       # Average percentage of cache occupancy
system.cpu.dcache.tags.occ_percent::.switch_cpus.data     0.982149                       # Average percentage of cache occupancy
system.cpu.dcache.tags.occ_percent::total            1                       # Average percentage of cache occupancy
system.cpu.dcache.tags.occ_task_id_blocks::1024         1024                       # Occupied blocks per task id
system.cpu.dcache.tags.age_task_id_blocks_1024::0            2                       # Occupied blocks per task id
system.cpu.dcache.tags.age_task_id_blocks_1024::1           22                       # Occupied blocks per task id
system.cpu.dcache.tags.age_task_id_blocks_1024::2          124                       # Occupied blocks per task id
system.cpu.dcache.tags.age_task_id_blocks_1024::3          876                       # Occupied blocks per task id
system.cpu.dcache.tags.occ_task_id_percent::1024            1                       # Percentage of cache occupancy per task id
system.cpu.dcache.tags.tag_accesses           7080982                       # Number of tag accesses
system.cpu.dcache.tags.data_accesses          7080982                       # Number of data accesses
system.cpu.dcache.tags.power_state.pwrStateResidencyTicks::UNDEFINED   7196779500                       # Cumulative time (in ticks) in various power states
system.cpu.dtb.rdAccesses                           0                       # TLB accesses on read requests
system.cpu.dtb.wrAccesses                           0                       # TLB accesses on write requests
system.cpu.dtb.rdMisses                             0                       # TLB misses on read requests
system.cpu.dtb.wrMisses                             0                       # TLB misses on write requests
system.cpu.dtb.walker.power_state.pwrStateResidencyTicks::UNDEFINED   7196779500                       # Cumulative time (in ticks) in various power states
system.cpu.dtb_walker_cache.blocked_cycles::no_mshrs            0                       # number of cycles access was blocked
system.cpu.dtb_walker_cache.blocked_cycles::no_targets            0                       # number of cycles access was blocked
system.cpu.dtb_walker_cache.blocked::no_mshrs            0                       # number of cycles access was blocked
system.cpu.dtb_walker_cache.blocked::no_targets            0                       # number of cycles access was blocked
system.cpu.dtb_walker_cache.avg_blocked_cycles::no_mshrs          nan                       # average number of cycles each access was blocked
system.cpu.dtb_walker_cache.avg_blocked_cycles::no_targets          nan                       # average number of cycles each access was blocked
system.cpu.dtb_walker_cache.replacements            0                       # number of replacements
system.cpu.dtb_walker_cache.power_state.pwrStateResidencyTicks::UNDEFINED   7196779500                       # Cumulative time (in ticks) in various power states
system.cpu.dtb_walker_cache.tags.tagsinuse            0                       # Cycle average of tags in use
system.cpu.dtb_walker_cache.tags.total_refs            0                       # Total number of references to valid blocks.
system.cpu.dtb_walker_cache.tags.sampled_refs            0                       # Sample count of references to valid blocks.
system.cpu.dtb_walker_cache.tags.avg_refs          nan                       # Average number of references to valid blocks.
system.cpu.dtb_walker_cache.tags.warmup_cycle            0                       # Cycle when the warmup percentage was hit.
system.cpu.dtb_walker_cache.tags.tag_accesses            0                       # Number of tag accesses
system.cpu.dtb_walker_cache.tags.data_accesses            0                       # Number of data accesses
system.cpu.dtb_walker_cache.tags.power_state.pwrStateResidencyTicks::UNDEFINED   7196779500                       # Cumulative time (in ticks) in various power states
system.cpu.icache.demand_hits::.switch_cpus.inst      1374827                       # number of demand (read+write) hits
system.cpu.icache.demand_hits::total          1374827                       # number of demand (read+write) hits
system.cpu.icache.overall_hits::.switch_cpus.inst      1374827                       # number of overall hits
system.cpu.icache.overall_hits::total         1374827                       # number of overall hits
system.cpu.icache.demand_misses::.switch_cpus.inst         1458                       # number of demand (read+write) misses
system.cpu.icache.demand_misses::total           1458                       # number of demand (read+write) misses
system.cpu.icache.overall_misses::.switch_cpus.inst         1458                       # number of overall misses
system.cpu.icache.overall_misses::total          1458                       # number of overall misses
system.cpu.icache.demand_miss_latency::.switch_cpus.inst    114777500                       # number of demand (read+write) miss cycles
system.cpu.icache.demand_miss_latency::total    114777500                       # number of demand (read+write) miss cycles
system.cpu.icache.overall_miss_latency::.switch_cpus.inst    114777500                       # number of overall miss cycles
system.cpu.icache.overall_miss_latency::total    114777500                       # number of overall miss cycles
system.cpu.icache.demand_accesses::.switch_cpus.inst      1376285                       # number of demand (read+write) accesses
system.cpu.icache.demand_accesses::total      1376285                       # number of demand (read+write) accesses
system.cpu.icache.overall_accesses::.switch_cpus.inst      1376285                       # number of overall (read+write) accesses
system.cpu.icache.overall_accesses::total      1376285                       # number of overall (read+write) accesses
system.cpu.icache.demand_miss_rate::.switch_cpus.inst     0.001059                       # miss rate for demand accesses
system.cpu.icache.demand_miss_rate::total     0.001059                       # miss rate for demand accesses
system.cpu.icache.overall_miss_rate::.switch_cpus.inst     0.001059                       # miss rate for overall accesses
system.cpu.icache.overall_miss_rate::total     0.001059                       # miss rate for overall accesses
system.cpu.icache.demand_avg_miss_latency::.switch_cpus.inst 78722.565158                       # average overall miss latency
system.cpu.icache.demand_avg_miss_latency::total 78722.565158                       # average overall miss latency
system.cpu.icache.overall_avg_miss_latency::.switch_cpus.inst 78722.565158                       # average overall miss latency
system.cpu.icache.overall_avg_miss_latency::total 78722.565158                       # average overall miss latency
system.cpu.icache.blocked_cycles::no_mshrs          499                       # number of cycles access was blocked
system.cpu.icache.blocked_cycles::no_targets            0                       # number of cycles access was blocked
system.cpu.icache.blocked::no_mshrs                 8                       # number of cycles access was blocked
system.cpu.icache.blocked::no_targets               0                       # number of cycles access was blocked
system.cpu.icache.avg_blocked_cycles::no_mshrs    62.375000                       # average number of cycles each access was blocked
system.cpu.icache.avg_blocked_cycles::no_targets          nan                       # average number of cycles each access was blocked
system.cpu.icache.writebacks::.writebacks          850                       # number of writebacks
system.cpu.icache.writebacks::total               850                       # number of writebacks
system.cpu.icache.demand_mshr_hits::.switch_cpus.inst          281                       # number of demand (read+write) MSHR hits
system.cpu.icache.demand_mshr_hits::total          281                       # number of demand (read+write) MSHR hits
system.cpu.icache.overall_mshr_hits::.switch_cpus.inst          281                       # number of overall MSHR hits
system.cpu.icache.overall_mshr_hits::total          281                       # number of overall MSHR hits
system.cpu.icache.demand_mshr_misses::.switch_cpus.inst         1177                       # number of demand (read+write) MSHR misses
system.cpu.icache.demand_mshr_misses::total         1177                       # number of demand (read+write) MSHR misses
system.cpu.icache.overall_mshr_misses::.switch_cpus.inst         1177                       # number of overall MSHR misses
system.cpu.icache.overall_mshr_misses::total         1177                       # number of overall MSHR misses
system.cpu.icache.demand_mshr_miss_latency::.switch_cpus.inst     93740000                       # number of demand (read+write) MSHR miss cycles
system.cpu.icache.demand_mshr_miss_latency::total     93740000                       # number of demand (read+write) MSHR miss cycles
system.cpu.icache.overall_mshr_miss_latency::.switch_cpus.inst     93740000                       # number of overall MSHR miss cycles
system.cpu.icache.overall_mshr_miss_latency::total     93740000                       # number of overall MSHR miss cycles
system.cpu.icache.demand_mshr_miss_rate::.switch_cpus.inst     0.000855                       # mshr miss rate for demand accesses
system.cpu.icache.demand_mshr_miss_rate::total     0.000855                       # mshr miss rate for demand accesses
system.cpu.icache.overall_mshr_miss_rate::.switch_cpus.inst     0.000855                       # mshr miss rate for overall accesses
system.cpu.icache.overall_mshr_miss_rate::total     0.000855                       # mshr miss rate for overall accesses
system.cpu.icache.demand_avg_mshr_miss_latency::.switch_cpus.inst 79643.160578                       # average overall mshr miss latency
system.cpu.icache.demand_avg_mshr_miss_latency::total 79643.160578                       # average overall mshr miss latency
system.cpu.icache.overall_avg_mshr_miss_latency::.switch_cpus.inst 79643.160578                       # average overall mshr miss latency
system.cpu.icache.overall_avg_mshr_miss_latency::total 79643.160578                       # average overall mshr miss latency
system.cpu.icache.replacements                    850                       # number of replacements
system.cpu.icache.ReadReq_hits::.switch_cpus.inst      1374827                       # number of ReadReq hits
system.cpu.icache.ReadReq_hits::total         1374827                       # number of ReadReq hits
system.cpu.icache.ReadReq_misses::.switch_cpus.inst         1458                       # number of ReadReq misses
system.cpu.icache.ReadReq_misses::total          1458                       # number of ReadReq misses
system.cpu.icache.ReadReq_miss_latency::.switch_cpus.inst    114777500                       # number of ReadReq miss cycles
system.cpu.icache.ReadReq_miss_latency::total    114777500                       # number of ReadReq miss cycles
system.cpu.icache.ReadReq_accesses::.switch_cpus.inst      1376285                       # number of ReadReq accesses(hits+misses)
system.cpu.icache.ReadReq_accesses::total      1376285                       # number of ReadReq accesses(hits+misses)
system.cpu.icache.ReadReq_miss_rate::.switch_cpus.inst     0.001059                       # miss rate for ReadReq accesses
system.cpu.icache.ReadReq_miss_rate::total     0.001059                       # miss rate for ReadReq accesses
system.cpu.icache.ReadReq_avg_miss_latency::.switch_cpus.inst 78722.565158                       # average ReadReq miss latency
system.cpu.icache.ReadReq_avg_miss_latency::total 78722.565158                       # average ReadReq miss latency
system.cpu.icache.ReadReq_mshr_hits::.switch_cpus.inst          281                       # number of ReadReq MSHR hits
system.cpu.icache.ReadReq_mshr_hits::total          281                       # number of ReadReq MSHR hits
system.cpu.icache.ReadReq_mshr_misses::.switch_cpus.inst         1177                       # number of ReadReq MSHR misses
system.cpu.icache.ReadReq_mshr_misses::total         1177                       # number of ReadReq MSHR misses
system.cpu.icache.ReadReq_mshr_miss_latency::.switch_cpus.inst     93740000                       # number of ReadReq MSHR miss cycles
system.cpu.icache.ReadReq_mshr_miss_latency::total     93740000                       # number of ReadReq MSHR miss cycles
system.cpu.icache.ReadReq_mshr_miss_rate::.switch_cpus.inst     0.000855                       # mshr miss rate for ReadReq accesses
system.cpu.icache.ReadReq_mshr_miss_rate::total     0.000855                       # mshr miss rate for ReadReq accesses
system.cpu.icache.ReadReq_avg_mshr_miss_latency::.switch_cpus.inst 79643.160578                       # average ReadReq mshr miss latency
system.cpu.icache.ReadReq_avg_mshr_miss_latency::total 79643.160578                       # average ReadReq mshr miss latency
system.cpu.icache.power_state.pwrStateResidencyTicks::UNDEFINED   7196779500                       # Cumulative time (in ticks) in various power states
system.cpu.icache.tags.tagsinuse           951.341195                       # Cycle average of tags in use
system.cpu.icache.tags.total_refs             2711293                       # Total number of references to valid blocks.
system.cpu.icache.tags.sampled_refs              1833                       # Sample count of references to valid blocks.
system.cpu.icache.tags.avg_refs           1479.156028                       # Average number of references to valid blocks.
system.cpu.icache.tags.warmup_cycle                 0                       # Cycle when the warmup percentage was hit.
system.cpu.icache.tags.occ_blocks::.cpu.inst   263.491276                       # Average occupied blocks per requestor
system.cpu.icache.tags.occ_blocks::.switch_cpus.inst   687.849918                       # Average occupied blocks per requestor
system.cpu.icache.tags.occ_percent::.cpu.inst     0.257316                       # Average percentage of cache occupancy
system.cpu.icache.tags.occ_percent::.switch_cpus.inst     0.671728                       # Average percentage of cache occupancy
system.cpu.icache.tags.occ_percent::total     0.929044                       # Average percentage of cache occupancy
system.cpu.icache.tags.occ_task_id_blocks::1024          983                       # Occupied blocks per task id
system.cpu.icache.tags.age_task_id_blocks_1024::3          983                       # Occupied blocks per task id
system.cpu.icache.tags.occ_task_id_percent::1024     0.959961                       # Percentage of cache occupancy per task id
system.cpu.icache.tags.tag_accesses           2753747                       # Number of tag accesses
system.cpu.icache.tags.data_accesses          2753747                       # Number of data accesses
system.cpu.icache.tags.power_state.pwrStateResidencyTicks::UNDEFINED   7196779500                       # Cumulative time (in ticks) in various power states
system.cpu.interrupts.clk_domain.clock           8000                       # Clock period in ticks
system.cpu.itb.rdAccesses                           0                       # TLB accesses on read requests
system.cpu.itb.wrAccesses                           0                       # TLB accesses on write requests
system.cpu.itb.rdMisses                             0                       # TLB misses on read requests
system.cpu.itb.wrMisses                             0                       # TLB misses on write requests
system.cpu.itb.walker.power_state.pwrStateResidencyTicks::UNDEFINED   7196779500                       # Cumulative time (in ticks) in various power states
system.cpu.itb_walker_cache.blocked_cycles::no_mshrs            0                       # number of cycles access was blocked
system.cpu.itb_walker_cache.blocked_cycles::no_targets            0                       # number of cycles access was blocked
system.cpu.itb_walker_cache.blocked::no_mshrs            0                       # number of cycles access was blocked
system.cpu.itb_walker_cache.blocked::no_targets            0                       # number of cycles access was blocked
system.cpu.itb_walker_cache.avg_blocked_cycles::no_mshrs          nan                       # average number of cycles each access was blocked
system.cpu.itb_walker_cache.avg_blocked_cycles::no_targets          nan                       # average number of cycles each access was blocked
system.cpu.itb_walker_cache.replacements            0                       # number of replacements
system.cpu.itb_walker_cache.power_state.pwrStateResidencyTicks::UNDEFINED   7196779500                       # Cumulative time (in ticks) in various power states
system.cpu.itb_walker_cache.tags.tagsinuse            0                       # Cycle average of tags in use
system.cpu.itb_walker_cache.tags.total_refs            0                       # Total number of references to valid blocks.
system.cpu.itb_walker_cache.tags.sampled_refs            0                       # Sample count of references to valid blocks.
system.cpu.itb_walker_cache.tags.avg_refs          nan                       # Average number of references to valid blocks.
system.cpu.itb_walker_cache.tags.warmup_cycle            0                       # Cycle when the warmup percentage was hit.
system.cpu.itb_walker_cache.tags.tag_accesses            0                       # Number of tag accesses
system.cpu.itb_walker_cache.tags.data_accesses            0                       # Number of data accesses
system.cpu.itb_walker_cache.tags.power_state.pwrStateResidencyTicks::UNDEFINED   7196779500                       # Cumulative time (in ticks) in various power states
system.cpu.power_state.pwrStateResidencyTicks::OFF   6147236000                       # Cumulative time (in ticks) in various power states
system.cpu.thread_0.numInsts                        0                       # Number of Instructions committed
system.cpu.thread_0.numOps                          0                       # Number of Ops committed
system.cpu.thread_0.numMemRefs                      0                       # Number of Memory References
system.cpu_clk_domain.clock                       500                       # Clock period in ticks
system.cpu_voltage_domain.voltage                   1                       # Voltage in Volts
system.l2.demand_hits::.switch_cpus.inst           57                       # number of demand (read+write) hits
system.l2.demand_hits::.switch_cpus.data         4791                       # number of demand (read+write) hits
system.l2.demand_hits::total                     4848                       # number of demand (read+write) hits
system.l2.overall_hits::.switch_cpus.inst           57                       # number of overall hits
system.l2.overall_hits::.switch_cpus.data         4791                       # number of overall hits
system.l2.overall_hits::total                    4848                       # number of overall hits
system.l2.demand_misses::.switch_cpus.inst         1116                       # number of demand (read+write) misses
system.l2.demand_misses::.switch_cpus.data        38965                       # number of demand (read+write) misses
system.l2.demand_misses::total                  40081                       # number of demand (read+write) misses
system.l2.overall_misses::.switch_cpus.inst         1116                       # number of overall misses
system.l2.overall_misses::.switch_cpus.data        38965                       # number of overall misses
system.l2.overall_misses::total                 40081                       # number of overall misses
system.l2.demand_miss_latency::.switch_cpus.inst     91324500                       # number of demand (read+write) miss cycles
system.l2.demand_miss_latency::.switch_cpus.data   3093015000                       # number of demand (read+write) miss cycles
system.l2.demand_miss_latency::total       3184339500                       # number of demand (read+write) miss cycles
system.l2.overall_miss_latency::.switch_cpus.inst     91324500                       # number of overall miss cycles
system.l2.overall_miss_latency::.switch_cpus.data   3093015000                       # number of overall miss cycles
system.l2.overall_miss_latency::total      3184339500                       # number of overall miss cycles
system.l2.demand_accesses::.switch_cpus.inst         1173                       # number of demand (read+write) accesses
system.l2.demand_accesses::.switch_cpus.data        43756                       # number of demand (read+write) accesses
system.l2.demand_accesses::total                44929                       # number of demand (read+write) accesses
system.l2.overall_accesses::.switch_cpus.inst         1173                       # number of overall (read+write) accesses
system.l2.overall_accesses::.switch_cpus.data        43756                       # number of overall (read+write) accesses
system.l2.overall_accesses::total               44929                       # number of overall (read+write) accesses
system.l2.demand_miss_rate::.switch_cpus.inst     0.951407                       # miss rate for demand accesses
system.l2.demand_miss_rate::.switch_cpus.data     0.890506                       # miss rate for demand accesses
system.l2.demand_miss_rate::total            0.892096                       # miss rate for demand accesses
system.l2.overall_miss_rate::.switch_cpus.inst     0.951407                       # miss rate for overall accesses
system.l2.overall_miss_rate::.switch_cpus.data     0.890506                       # miss rate for overall accesses
system.l2.overall_miss_rate::total           0.892096                       # miss rate for overall accesses
system.l2.demand_avg_miss_latency::.switch_cpus.inst 81831.989247                       # average overall miss latency
system.l2.demand_avg_miss_latency::.switch_cpus.data 79379.314770                       # average overall miss latency
system.l2.demand_avg_miss_latency::total 79447.606098                       # average overall miss latency
system.l2.overall_avg_miss_latency::.switch_cpus.inst 81831.989247                       # average overall miss latency
system.l2.overall_avg_miss_latency::.switch_cpus.data 79379.314770                       # average overall miss latency
system.l2.overall_avg_miss_latency::total 79447.606098                       # average overall miss latency
system.l2.blocked_cycles::no_mshrs                  0                       # number of cycles access was blocked
system.l2.blocked_cycles::no_targets                0                       # number of cycles access was blocked
system.l2.blocked::no_mshrs                         0                       # number of cycles access was blocked
system.l2.blocked::no_targets                       0                       # number of cycles access was blocked
system.l2.avg_blocked_cycles::no_mshrs            nan                       # average number of cycles each access was blocked
system.l2.avg_blocked_cycles::no_targets          nan                       # average number of cycles each access was blocked
system.l2.writebacks::.writebacks               28147                       # number of writebacks
system.l2.writebacks::total                     28147                       # number of writebacks
system.l2.demand_mshr_misses::.switch_cpus.inst         1116                       # number of demand (read+write) MSHR misses
system.l2.demand_mshr_misses::.switch_cpus.data        38965                       # number of demand (read+write) MSHR misses
system.l2.demand_mshr_misses::total             40081                       # number of demand (read+write) MSHR misses
system.l2.overall_mshr_misses::.switch_cpus.inst         1116                       # number of overall MSHR misses
system.l2.overall_mshr_misses::.switch_cpus.data        38965                       # number of overall MSHR misses
system.l2.overall_mshr_misses::total            40081                       # number of overall MSHR misses
system.l2.demand_mshr_miss_latency::.switch_cpus.inst     80164500                       # number of demand (read+write) MSHR miss cycles
system.l2.demand_mshr_miss_latency::.switch_cpus.data   2703365000                       # number of demand (read+write) MSHR miss cycles
system.l2.demand_mshr_miss_latency::total   2783529500                       # number of demand (read+write) MSHR miss cycles
system.l2.overall_mshr_miss_latency::.switch_cpus.inst     80164500                       # number of overall MSHR miss cycles
system.l2.overall_mshr_miss_latency::.switch_cpus.data   2703365000                       # number of overall MSHR miss cycles
system.l2.overall_mshr_miss_latency::total   2783529500                       # number of overall MSHR miss cycles
system.l2.demand_mshr_miss_rate::.switch_cpus.inst     0.951407                       # mshr miss rate for demand accesses
system.l2.demand_mshr_miss_rate::.switch_cpus.data     0.890506                       # mshr miss rate for demand accesses
system.l2.demand_mshr_miss_rate::total       0.892096                       # mshr miss rate for demand accesses
system.l2.overall_mshr_miss_rate::.switch_cpus.inst     0.951407                       # mshr miss rate for overall accesses
system.l2.overall_mshr_miss_rate::.switch_cpus.data     0.890506                       # mshr miss rate for overall accesses
system.l2.overall_mshr_miss_rate::total      0.892096                       # mshr miss rate for overall accesses
system.l2.demand_avg_mshr_miss_latency::.switch_cpus.inst 71831.989247                       # average overall mshr miss latency
system.l2.demand_avg_mshr_miss_latency::.switch_cpus.data 69379.314770                       # average overall mshr miss latency
system.l2.demand_avg_mshr_miss_latency::total 69447.606098                       # average overall mshr miss latency
system.l2.overall_avg_mshr_miss_latency::.switch_cpus.inst 71831.989247                       # average overall mshr miss latency
system.l2.overall_avg_mshr_miss_latency::.switch_cpus.data 69379.314770                       # average overall mshr miss latency
system.l2.overall_avg_mshr_miss_latency::total 69447.606098                       # average overall mshr miss latency
system.l2.replacements                          38604                       # number of replacements
system.l2.WritebackDirty_hits::.writebacks        35122                       # number of WritebackDirty hits
system.l2.WritebackDirty_hits::total            35122                       # number of WritebackDirty hits
system.l2.WritebackDirty_accesses::.writebacks        35122                       # number of WritebackDirty accesses(hits+misses)
system.l2.WritebackDirty_accesses::total        35122                       # number of WritebackDirty accesses(hits+misses)
system.l2.WritebackClean_hits::.writebacks          845                       # number of WritebackClean hits
system.l2.WritebackClean_hits::total              845                       # number of WritebackClean hits
[...]
system.switch_cpus.commit.committedInstType_0::SimdAddAcc            0      0.00%     71.19% # Class of committed instruction
system.switch_cpus.commit.committedInstType_0::SimdAlu        11824      0.07%     71.26% # Class of committed instruction
system.switch_cpus.commit.committedInstType_0::SimdCmp            0      0.00%     71.26% # Class of committed instruction
system.switch_cpus.commit.committedInstType_0::SimdCvt         7980      0.05%     71.32% # Class of committed instruction
system.switch_cpus.commit.committedInstType_0::SimdMisc       282738      1.79%     73.11% # Class of committed instruction
system.switch_cpus.commit.committedInstType_0::SimdMult            0      0.00%     73.11% # Class of committed instruction
system.switch_cpus.commit.committedInstType_0::SimdMultAcc            0      0.00%     73.11% # Class of committed instruction
system.switch_cpus.commit.committedInstType_0::SimdShift         1460      0.01%     73.12% # Class of committed instruction
system.switch_cpus.commit.committedInstType_0::SimdShiftAcc            0      0.00%     73.12% # Class of committed instruction
system.switch_cpus.commit.committedInstType_0::SimdDiv            0      0.00%     73.12% # Class of committed instruction
system.switch_cpus.commit.committedInstType_0::SimdSqrt            0      0.00%     73.12% # Class of committed instruction
system.switch_cpus.commit.committedInstType_0::SimdFloatAdd            0      0.00%     73.12% # Class of committed instruction
system.switch_cpus.commit.committedInstType_0::SimdFloatAlu            0      0.00%     73.12% # Class of committed instruction
system.switch_cpus.commit.committedInstType_0::SimdFloatCmp            0      0.00%     73.12% # Class of committed instruction
system.switch_cpus.commit.committedInstType_0::SimdFloatCvt         4134      0.03%     73.14% # Class of committed instruction
system.switch_cpus.commit.committedInstType_0::SimdFloatDiv            0      0.00%     73.14% # Class of committed instruction
system.switch_cpus.commit.committedInstType_0::SimdFloatMisc            0      0.00%     73.14% # Class of committed instruction
system.switch_cpus.commit.committedInstType_0::SimdFloatMult         2067      0.01%     73.16% # Class of committed instruction
system.switch_cpus.commit.committedInstType_0::SimdFloatMultAcc            0      0.00%     73.16% # Class of committed instruction
system.switch_cpus.commit.committedInstType_0::SimdFloatSqrt            0      0.00%     73.16% # Class of committed instruction
system.switch_cpus.commit.committedInstType_0::SimdReduceAdd            0      0.00%     73.16% # Class of committed instruction
system.switch_cpus.commit.committedInstType_0::SimdReduceAlu            0      0.00%     73.16% # Class of committed instruction
system.switch_cpus.commit.committedInstType_0::SimdReduceCmp            0      0.00%     73.16% # Class of committed instruction
system.switch_cpus.commit.committedInstType_0::SimdFloatReduceAdd            0      0.00%     73.16% # Class of committed instruction
system.switch_cpus.commit.committedInstType_0::SimdFloatReduceCmp            0      0.00%     73.16% # Class of committed instruction
system.switch_cpus.commit.committedInstType_0::SimdAes            0      0.00%     73.16% # Class of committed instruction
system.switch_cpus.commit.committedInstType_0::SimdAesMix            0      0.00%     73.16% # Class of committed instruction
system.switch_cpus.commit.committedInstType_0::SimdSha1Hash            0      0.00%     73.16% # Class of committed instruction
system.switch_cpus.commit.committedInstType_0::SimdSha1Hash2            0      0.00%     73.16% # Class of committed instruction
system.switch_cpus.commit.committedInstType_0::SimdSha256Hash            0      0.00%     73.16% # Class of committed instruction
system.switch_cpus.commit.committedInstType_0::SimdSha256Hash2            0      0.00%     73.16% # Class of committed instruction
system.switch_cpus.commit.committedInstType_0::SimdShaSigma2            0      0.00%     73.16% # Class of committed instruction
system.switch_cpus.commit.committedInstType_0::SimdShaSigma3            0      0.00%     73.16% # Class of committed instruction
system.switch_cpus.commit.committedInstType_0::SimdPredAlu            0      0.00%     73.16% # Class of committed instruction
system.switch_cpus.commit.committedInstType_0::MemRead      2726868     17.28%     90.43% # Class of committed instruction
system.switch_cpus.commit.committedInstType_0::MemWrite      1153087      7.31%     97.74% # Class of committed instruction
system.switch_cpus.commit.committedInstType_0::FloatMemRead        16727      0.11%     97.84% # Class of committed instruction
system.switch_cpus.commit.committedInstType_0::FloatMemWrite       340242      2.16%    100.00% # Class of committed instruction
system.switch_cpus.commit.committedInstType_0::IprAccess            0      0.00%    100.00% # Class of committed instruction
system.switch_cpus.commit.committedInstType_0::InstPrefetch            0      0.00%    100.00% # Class of committed instruction
system.switch_cpus.commit.committedInstType_0::total     15783158                       # Class of committed instruction
system.switch_cpus.commit.commitEligibleSamples       564109                       # number cycles where commit BW limit reached
system.switch_cpus.decode.idleCycles          1416737                       # Number of cycles decode is idle
system.switch_cpus.decode.blockedCycles       8184515                       # Number of cycles decode is blocked
system.switch_cpus.decode.runCycles           1787704                       # Number of cycles decode is running
system.switch_cpus.decode.unblockCycles        773300                       # Number of cycles decode is unblocking
system.switch_cpus.decode.squashCycles          45041                       # Number of cycles decode is squashing
system.switch_cpus.decode.branchResolved       786744                       # Number of times decode resolved a  branch
system.switch_cpus.decode.branchMispred          1010                       # Number of times decode detected a branch misprediction
system.switch_cpus.decode.decodedInsts       18123385                       # Number of instructions handled by decode
system.switch_cpus.decode.squashedInsts          5007                       # Number of squashed instructions handled by decode
system.switch_cpus.dtb.rdAccesses             2934507                       # TLB accesses on read requests
system.switch_cpus.dtb.wrAccesses             1547998                       # TLB accesses on write requests
system.switch_cpus.dtb.rdMisses                  1489                       # TLB misses on read requests
system.switch_cpus.dtb.wrMisses                 16406                       # TLB misses on write requests
system.switch_cpus.dtb.walker.power_state.pwrStateResidencyTicks::UNDEFINED   7196779500                       # Cumulative time (in ticks) in various power states
system.switch_cpus.fetch.icacheStallCycles      1432207                       # Number of cycles fetch is stalled on an Icache miss
system.switch_cpus.fetch.insts               11503352                       # Number of instructions fetch has processed
system.switch_cpus.fetch.branches             1542549                       # Number of branches that fetch encountered
system.switch_cpus.fetch.predictedBranches       995587                       # Number of branches that fetch has predicted taken
system.switch_cpus.fetch.cycles              10724937                       # Number of cycles fetch has run and was not squashing or blocked
system.switch_cpus.fetch.squashCycles           92044                       # Number of cycles fetch has spent squashing
system.switch_cpus.fetch.miscStallCycles          574                       # Number of cycles fetch has spent waiting on interrupts,or bad addresses, or out of MSHRs
system.switch_cpus.fetch.pendingTrapStallCycles         3502                       # Number of stall cycles due to pending traps
system.switch_cpus.fetch.pendingQuiesceStallCycles           26                       # Number of stall cycles due to pending quiesce instructions
system.switch_cpus.fetch.icacheWaitRetryStallCycles           33                       # Number of stall cycles due to full MSHR
system.switch_cpus.fetch.cacheLines           1376286                       # Number of cache lines fetched
system.switch_cpus.fetch.icacheSquashes         14809                       # Number of outstanding Icache misses that were squashed
system.switch_cpus.fetch.nisnDist::samples     12207301                       # Number of instructions fetched each cycle (Total)
system.switch_cpus.fetch.nisnDist::mean      1.515271                       # Number of instructions fetched each cycle (Total)
system.switch_cpus.fetch.nisnDist::stdev     2.876079                       # Number of instructions fetched each cycle (Total)
system.switch_cpus.fetch.nisnDist::underflows            0      0.00%      0.00% # Number of instructions fetched each cycle (Total)
system.switch_cpus.fetch.nisnDist::0          9180479     75.20%     75.20% # Number of instructions fetched each cycle (Total)
system.switch_cpus.fetch.nisnDist::1           136107      1.11%     76.32% # Number of instructions fetched each cycle (Total)
system.switch_cpus.fetch.nisnDist::2           193491      1.59%     77.90% # Number of instructions fetched each cycle (Total)
system.switch_cpus.fetch.nisnDist::3           226561      1.86%     79.76% # Number of instructions fetched each cycle (Total)
system.switch_cpus.fetch.nisnDist::4           218730      1.79%     81.55% # Number of instructions fetched each cycle (Total)
system.switch_cpus.fetch.nisnDist::5           309352      2.53%     84.09% # Number of instructions fetched each cycle (Total)
system.switch_cpus.fetch.nisnDist::6           256756      2.10%     86.19% # Number of instructions fetched each cycle (Total)
system.switch_cpus.fetch.nisnDist::7           154224      1.26%     87.45% # Number of instructions fetched each cycle (Total)
system.switch_cpus.fetch.nisnDist::8          1531601     12.55%    100.00% # Number of instructions fetched each cycle (Total)
system.switch_cpus.fetch.nisnDist::overflows            0      0.00%    100.00% # Number of instructions fetched each cycle (Total)
system.switch_cpus.fetch.nisnDist::min_value            0                       # Number of instructions fetched each cycle (Total)
system.switch_cpus.fetch.nisnDist::max_value            8                       # Number of instructions fetched each cycle (Total)
system.switch_cpus.fetch.nisnDist::total     12207301                       # Number of instructions fetched each cycle (Total)
system.switch_cpus.fetch.branchRate          0.125467                       # Number of branch fetches per cycle
system.switch_cpus.fetch.rate                0.935652                       # Number of inst fetches per cycle
system.switch_cpus.itb.rdAccesses                   0                       # TLB accesses on read requests
system.switch_cpus.itb.wrAccesses             1376831                       # TLB accesses on write requests
system.switch_cpus.itb.rdMisses                     0                       # TLB misses on read requests
system.switch_cpus.itb.wrMisses                   682                       # TLB misses on write requests
system.switch_cpus.itb.walker.power_state.pwrStateResidencyTicks::UNDEFINED   7196779500                       # Cumulative time (in ticks) in various power states
system.switch_cpus.lsq0.forwLoads              908650                       # Number of loads that had data forwarded from stores
system.switch_cpus.lsq0.squashedLoads          308173                       # Number of loads squashed
system.switch_cpus.lsq0.ignoredResponses          282                       # Number of memory responses ignored because the instruction is squashed
system.switch_cpus.lsq0.memOrderViolation          218                       # Number of memory ordering violations
system.switch_cpus.lsq0.squashedStores          73803                       # Number of stores squashed
system.switch_cpus.lsq0.rescheduledLoads            2                       # Number of loads that were rescheduled
system.switch_cpus.lsq0.blockedByCache            156                       # Number of times an access to memory failed due to the cache being blocked
system.switch_cpus.power_state.pwrStateResidencyTicks::OFF   7196779500                       # Cumulative time (in ticks) in various power states
system.switch_cpus.rename.squashCycles          45041                       # Number of cycles rename is squashing
system.switch_cpus.rename.idleCycles          1696104                       # Number of cycles rename is idle
system.switch_cpus.rename.blockCycles         3261019                       # Number of cycles rename is blocking
system.switch_cpus.rename.serializeStallCycles        10203                       # count of cycles rename stalledfor serializing inst
system.switch_cpus.rename.runCycles           2269205                       # Number of cycles rename is running
system.switch_cpus.rename.unblockCycles       4925725                       # Number of cycles rename is unblocking
system.switch_cpus.rename.renamedInsts       17952602                       # Number of instructions processed by rename
system.switch_cpus.rename.ROBFullEvents          4764                       # Number of times rename has blocked due to ROB full
system.switch_cpus.rename.IQFullEvents         758831                       # Number of times rename has blocked due to IQ full
system.switch_cpus.rename.LQFullEvents         827674                       # Number of times rename has blocked due to LQ full
system.switch_cpus.rename.SQFullEvents        3356950                       # Number of times rename has blocked due to SQ full
system.switch_cpus.rename.fullRegistersEvents          263                       # Number of times there has been no free registers
system.switch_cpus.rename.renamedOperands     23783762                       # Number of destination operands rename has renamed
system.switch_cpus.rename.lookups            49065675                       # Number of register rename lookups that rename has made
system.switch_cpus.rename.intLookups         30518291                       # Number of integer rename lookups
system.switch_cpus.rename.fpLookups           1014923                       # Number of floating rename lookups
system.switch_cpus.rename.committedMaps      21187688                       # Number of HB maps that are committed
system.switch_cpus.rename.undoneMaps          2595880                       # Number of HB maps that are undone due to squashing
system.switch_cpus.rename.serializing             672                       # count of serializing insts renamed
system.switch_cpus.rename.tempSerializing          667                       # count of temporary serializing insts renamed
system.switch_cpus.rename.skidInsts           3707186                       # count of insts added to the skid buffer
system.switch_cpus.rob.reads                 29032519                       # The number of ROB reads
system.switch_cpus.rob.writes                35571334                       # The number of ROB writes
system.switch_cpus.thread_0.numInsts         10000000                       # Number of Instructions committed
system.switch_cpus.thread_0.numOps           15783158                       # Number of Ops committed
system.switch_cpus.thread_0.numMemRefs              0                       # Number of Memory References
system.tol2bus.trans_dist::ReadResp             10103                       # Transaction distribution
system.tol2bus.trans_dist::WritebackDirty        63269                       # Transaction distribution
system.tol2bus.trans_dist::WritebackClean          850                       # Transaction distribution
system.tol2bus.trans_dist::CleanEvict           19091                       # Transaction distribution
system.tol2bus.trans_dist::ReadExReq            34830                       # Transaction distribution
system.tol2bus.trans_dist::ReadExResp           34830                       # Transaction distribution
system.tol2bus.trans_dist::ReadCleanReq          1177                       # Transaction distribution
system.tol2bus.trans_dist::ReadSharedReq         8926                       # Transaction distribution
system.tol2bus.pkt_count_system.cpu.icache.mem_side_port::system.l2.cpu_side_port         3200                       # Packet count per connected requestor and responder (bytes)
system.tol2bus.pkt_count_system.cpu.dcache.mem_side_port::system.l2.cpu_side_port       131268                       # Packet count per connected requestor and responder (bytes)
system.tol2bus.pkt_count::total                134468                       # Packet count per connected requestor and responder (bytes)
system.tol2bus.pkt_size_system.cpu.icache.mem_side_port::system.l2.cpu_side_port       129472                       # Cumulative packet size per connected requestor and responder (bytes)
system.tol2bus.pkt_size_system.cpu.dcache.mem_side_port::system.l2.cpu_side_port      5048192                       # Cumulative packet size per connected requestor and responder (bytes)
system.tol2bus.pkt_size::total                5177664                       # Cumulative packet size per connected requestor and responder (bytes)
system.tol2bus.snoops                           38608                       # Total snoops (count)
system.tol2bus.snoopTraffic                   1801664                       # Total snoop traffic (bytes)
system.tol2bus.snoop_fanout::samples            83537                       # Request fanout histogram
system.tol2bus.snoop_fanout::mean            0.016161                       # Request fanout histogram
system.tol2bus.snoop_fanout::stdev           0.126093                       # Request fanout histogram
system.tol2bus.snoop_fanout::underflows             0      0.00%      0.00% # Request fanout histogram
system.tol2bus.snoop_fanout::0                  82187     98.38%     98.38% # Request fanout histogram
system.tol2bus.snoop_fanout::1                   1350      1.62%    100.00% # Request fanout histogram
system.tol2bus.snoop_fanout::2                      0      0.00%    100.00% # Request fanout histogram
system.tol2bus.snoop_fanout::3                      0      0.00%    100.00% # Request fanout histogram
system.tol2bus.snoop_fanout::4                      0      0.00%    100.00% # Request fanout histogram
system.tol2bus.snoop_fanout::overflows              0      0.00%    100.00% # Request fanout histogram
system.tol2bus.snoop_fanout::min_value              0                       # Request fanout histogram
system.tol2bus.snoop_fanout::max_value              1                       # Request fanout histogram
system.tol2bus.snoop_fanout::total              83537                       # Request fanout histogram
system.tol2bus.power_state.pwrStateResidencyTicks::UNDEFINED   7196779500                       # Cumulative time (in ticks) in various power states
system.tol2bus.reqLayer0.occupancy           80741500                       # Layer occupancy (ticks)
system.tol2bus.reqLayer0.utilization              1.3                       # Layer utilization (%)
system.tol2bus.respLayer0.occupancy           1769492                       # Layer occupancy (ticks)
system.tol2bus.respLayer0.utilization             0.0                       # Layer utilization (%)
system.tol2bus.respLayer1.occupancy          65634000                       # Layer occupancy (ticks)
system.tol2bus.respLayer1.utilization             1.1                       # Layer utilization (%)
system.voltage_domain.voltage                       1                       # Voltage in Volts

---------- End Simulation Statistics   ----------
