
---------- Begin Simulation Statistics ----------
final_tick                                36882138500                       # Number of ticks from beginning of simulation (restored from checkpoints and never reset)
host_inst_rate                                  64216                       # Simulator instruction rate (inst/s)
host_mem_usage                                8830128                       # Number of bytes of host memory used
host_op_rate                                   101740                       # Simulator op (including micro ops) rate (op/s)
host_seconds                                   171.30                       # Real time elapsed on the host
host_tick_rate                              209277395                       # Simulator tick rate (ticks/s)
sim_freq                                 1000000000000                       # Frequency of simulated ticks
sim_insts                                    11000002                       # Number of instructions simulated
sim_ops                                      17427911                       # Number of ops (including micro ops) simulated
sim_seconds                                  0.035849                       # Number of seconds simulated
sim_ticks                                 35848805500                       # Number of ticks simulated
system.cpu.committedInsts                           0                       # Number of instructions committed
system.cpu.committedOps                             0                       # Number of ops (including micro ops) committed
system.cpu.idle_fraction                            0                       # Percentage of idle cycles
system.cpu.not_idle_fraction                        1                       # Percentage of non-idle cycles
system.cpu.numCycles                                0                       # number of cpu cycles simulated
system.cpu.numWorkItemsCompleted                    0                       # number of work items this cpu completed
system.cpu.numWorkItemsStarted                      0                       # number of work items this cpu started
system.cpu.num_busy_cycles                          0                       # Number of busy cycles
system.cpu.num_conditional_control_insts            0                       # number of instructions that are conditional controls
system.cpu.num_fp_alu_accesses                      0                       # Number of float alu accesses
system.cpu.num_fp_insts                             0                       # number of float instructions
system.cpu.num_fp_register_reads                    0                       # number of times the floating registers were read
system.cpu.num_fp_register_writes                   0                       # number of times the floating registers were written
system.cpu.num_func_calls                           0                       # number of times a function call or return occured
system.cpu.num_idle_cycles                          0                       # Number of idle cycles
system.cpu.num_int_alu_accesses                     0                       # Number of integer alu accesses
system.cpu.num_int_insts                            0                       # number of integer instructions
system.cpu.num_int_register_reads                   0                       # number of times the integer registers were read
system.cpu.num_int_register_writes                  0                       # number of times the integer registers were written
system.cpu.num_load_insts                           0                       # Number of load instructions
system.cpu.num_mem_refs                             0                       # number of memory refs
system.cpu.num_store_insts                          0                       # Number of store instructions
system.cpu.num_vec_alu_accesses                     0                       # Number of vector alu accesses
system.cpu.num_vec_insts                            0                       # number of vector instructions
system.cpu.num_vec_register_reads                   0                       # number of times the vector registers were read
system.cpu.num_vec_register_writes                  0                       # number of times the vector registers were written
system.cpu.op_class::No_OpClass                     0                       # Class of executed instruction
system.cpu.op_class::IntAlu                         0                       # Class of executed instruction
system.cpu.op_class::IntMult                        0                       # Class of executed instruction
system.cpu.op_class::IntDiv                         0                       # Class of executed instruction
system.cpu.op_class::FloatAdd                       0                       # Class of executed instruction
system.cpu.op_class::FloatCmp                       0                       # Class of executed instruction
system.cpu.op_class::FloatCvt                       0                       # Class of executed instruction
system.cpu.op_class::FloatMult                      0                       # Class of executed instruction
system.cpu.op_class::FloatMultAcc                   0                       # Class of executed instruction
system.cpu.op_class::FloatDiv                       0                       # Class of executed instruction
system.cpu.op_class::FloatMisc                      0                       # Class of executed instruction
system.cpu.op_class::FloatSqrt                      0                       # Class of executed instruction
system.cpu.op_class::SimdAdd                        0                       # Class of executed instruction
system.cpu.op_class::SimdAddAcc                     0                       # Class of executed instruction
system.cpu.op_class::SimdAlu                        0                       # Class of executed instruction
system.cpu.op_class::SimdCmp                        0                       # Class of executed instruction
system.cpu.op_class::SimdCvt                        0                       # Class of executed instruction
system.cpu.op_class::SimdMisc                       0                       # Class of executed instruction
system.cpu.op_class::SimdMult                       0                       # Class of executed instruction
system.cpu.op_class::SimdMultAcc                    0                       # Class of executed instruction
system.cpu.op_class::SimdShift                      0                       # Class of executed instruction
system.cpu.op_class::SimdShiftAcc                   0                       # Class of executed instruction
system.cpu.op_class::SimdDiv                        0                       # Class of executed instruction
system.cpu.op_class::SimdSqrt                       0                       # Class of executed instruction
system.cpu.op_class::SimdFloatAdd                   0                       # Class of executed instruction
system.cpu.op_class::SimdFloatAlu                   0                       # Class of executed instruction
system.cpu.op_class::SimdFloatCmp                   0                       # Class of executed instruction
system.cpu.op_class::SimdFloatCvt                   0                       # Class of executed instruction
system.cpu.op_class::SimdFloatDiv                   0                       # Class of executed instruction
system.cpu.op_class::SimdFloatMisc                  0                       # Class of executed instruction
system.cpu.op_class::SimdFloatMult                  0                       # Class of executed instruction
system.cpu.op_class::SimdFloatMultAcc               0                       # Class of executed instruction
system.cpu.op_class::SimdFloatSqrt                  0                       # Class of executed instruction
system.cpu.op_class::SimdReduceAdd                  0                       # Class of executed instruction
system.cpu.op_class::SimdReduceAlu                  0                       # Class of executed instruction
system.cpu.op_class::SimdReduceCmp                  0                       # Class of executed instruction
system.cpu.op_class::SimdFloatReduceAdd             0                       # Class of executed instruction
system.cpu.op_class::SimdFloatReduceCmp             0                       # Class of executed instruction
system.cpu.op_class::SimdAes                        0                       # Class of executed instruction
system.cpu.op_class::SimdAesMix                     0                       # Class of executed instruction
system.cpu.op_class::SimdSha1Hash                   0                       # Class of executed instruction
system.cpu.op_class::SimdSha1Hash2                  0                       # Class of executed instruction
system.cpu.op_class::SimdSha256Hash                 0                       # Class of executed instruction
system.cpu.op_class::SimdSha256Hash2                0                       # Class of executed instruction
system.cpu.op_class::SimdShaSigma2                  0                       # Class of executed instruction
system.cpu.op_class::SimdShaSigma3                  0                       # Class of executed instruction
system.cpu.op_class::SimdPredAlu                    0                       # Class of executed instruction
system.cpu.op_class::MemRead                        0                       # Class of executed instruction
system.cpu.op_class::MemWrite                       0                       # Class of executed instruction
system.cpu.op_class::FloatMemRead                   0                       # Class of executed instruction
system.cpu.op_class::FloatMemWrite                  0                       # Class of executed instruction
system.cpu.op_class::IprAccess                      0                       # Class of executed instruction
system.cpu.op_class::InstPrefetch                   0                       # Class of executed instruction
system.cpu.op_class::total                          0                       # Class of executed instruction
system.cpu.workload.numSyscalls                     7                       # Number of system calls
system.membus.snoop_filter.hit_multi_requests            0                       # Number of requests hitting in the snoop filter with multiple (>1) holders of the requested data.
system.membus.snoop_filter.hit_multi_snoops            0                       # Number of snoops hitting in the snoop filter with multiple (>1) holders of the requested data.
system.membus.snoop_filter.hit_single_requests       358136                       # Number of requests hitting in the snoop filter with a single holder of the requested data.
system.membus.snoop_filter.hit_single_snoops            0                       # Number of snoops hitting in the snoop filter with a single holder of the requested data.
system.membus.snoop_filter.tot_requests        720394                       # Total number of requests made to the snoop filter.
system.membus.snoop_filter.tot_snoops               0                       # Total number of snoops made to the snoop filter.
system.switch_cpus.cc_regfile_reads          18664378                       # number of cc regfile reads
system.switch_cpus.cc_regfile_writes         18581763                       # number of cc regfile writes
system.switch_cpus.committedInsts            10000001                       # Number of Instructions Simulated
system.switch_cpus.committedOps              15621644                       # Number of Ops (including micro ops) Simulated
system.switch_cpus.cpi                       7.169760                       # CPI: Cycles Per Instruction
system.switch_cpus.cpi_total                 7.169760                       # CPI: Total CPI of All Threads
system.switch_cpus.fp_regfile_reads            407461                       # number of floating regfile reads
system.switch_cpus.fp_regfile_writes           412388                       # number of floating regfile writes
system.switch_cpus.idleCycles                   37512                       # Total number of cycles that the CPU has spent unscheduled due to idling
system.switch_cpus.iew.branchMispredicts       175655                       # Number of branch mispredicts detected at execute
system.switch_cpus.iew.exec_branches          3644819                       # Number of branches executed
system.switch_cpus.iew.exec_nop                     0                       # number of nop insts executed
system.switch_cpus.iew.exec_rate             0.542490                       # Inst execution rate
system.switch_cpus.iew.exec_refs              8045405                       # number of memory reference insts executed
system.switch_cpus.iew.exec_stores            3651787                       # Number of stores executed
system.switch_cpus.iew.exec_swp                     0                       # number of swp insts executed
system.switch_cpus.iew.iewBlockCycles         3311837                       # Number of cycles IEW is blocking
system.switch_cpus.iew.iewDispLoadInsts       4700317                       # Number of dispatched load instructions
system.switch_cpus.iew.iewDispNonSpecInsts           52                       # Number of dispatched non-speculative instructions
system.switch_cpus.iew.iewDispSquashedInsts        43490                       # Number of squashed instructions skipped by dispatch
system.switch_cpus.iew.iewDispStoreInsts      4001527                       # Number of dispatched store instructions
system.switch_cpus.iew.iewDispatchedInsts     43154687                       # Number of instructions dispatched to IQ
system.switch_cpus.iew.iewExecLoadInsts       4393618                       # Number of load instructions executed
system.switch_cpus.iew.iewExecSquashedInsts       334991                       # Number of squashed instructions skipped in execute
system.switch_cpus.iew.iewExecutedInsts      38895214                       # Number of executed instructions
system.switch_cpus.iew.iewIQFullEvents           1819                       # Number of times the IQ has become full, causing a stall
system.switch_cpus.iew.iewIdleCycles                0                       # Number of cycles IEW is idle
system.switch_cpus.iew.iewLSQFullEvents         30065                       # Number of times the LSQ has become full, causing a stall
system.switch_cpus.iew.iewSquashCycles         264779                       # Number of cycles IEW is squashing
system.switch_cpus.iew.iewUnblockCycles         31231                       # Number of cycles IEW is unblocking
system.switch_cpus.iew.memOrderViolationEvents         1436                       # Number of memory order violations
system.switch_cpus.iew.predictedNotTakenIncorrect        80514                       # Number of branches that were predicted not taken incorrectly
system.switch_cpus.iew.predictedTakenIncorrect        95141                       # Number of branches that were predicted taken incorrectly
system.switch_cpus.iew.wb_consumers          46678867                       # num instructions consuming a value
system.switch_cpus.iew.wb_count              36609904                       # cumulative count of insts written-back
system.switch_cpus.iew.wb_fanout             0.629828                       # average fanout of values written-back
system.switch_cpus.iew.wb_producers          29399640                       # num instructions producing a value
system.switch_cpus.iew.wb_rate               0.510615                       # insts written-back per cycle
system.switch_cpus.iew.wb_sent               38819408                       # cumulative count of insts sent to commit
system.switch_cpus.int_regfile_reads         56477737                       # number of integer regfile reads
system.switch_cpus.int_regfile_writes        31149086                       # number of integer regfile writes
system.switch_cpus.ipc                       0.139475                       # IPC: Instructions Per Cycle
system.switch_cpus.ipc_total                 0.139475                       # IPC: Total IPC of All Threads
system.switch_cpus.iq.FU_type_0::No_OpClass       222889      0.57%      0.57% # Type of FU issued
system.switch_cpus.iq.FU_type_0::IntAlu      30585357     77.96%     78.53% # Type of FU issued
system.switch_cpus.iq.FU_type_0::IntMult       260619      0.66%     79.20% # Type of FU issued
system.switch_cpus.iq.FU_type_0::IntDiv             7      0.00%     79.20% # Type of FU issued
system.switch_cpus.iq.FU_type_0::FloatAdd         6858      0.02%     79.21% # Type of FU issued
system.switch_cpus.iq.FU_type_0::FloatCmp            0      0.00%     79.21% # Type of FU issued
system.switch_cpus.iq.FU_type_0::FloatCvt            0      0.00%     79.21% # Type of FU issued
system.switch_cpus.iq.FU_type_0::FloatMult            0      0.00%     79.21% # Type of FU issued
system.switch_cpus.iq.FU_type_0::FloatMultAcc            0      0.00%     79.21% # Type of FU issued
system.switch_cpus.iq.FU_type_0::FloatDiv            0      0.00%     79.21% # Type of FU issued
system.switch_cpus.iq.FU_type_0::FloatMisc            0      0.00%     79.21% # Type of FU issued
system.switch_cpus.iq.FU_type_0::FloatSqrt            0      0.00%     79.21% # Type of FU issued
system.switch_cpus.iq.FU_type_0::SimdAdd            0      0.00%     79.21% # Type of FU issued
system.switch_cpus.iq.FU_type_0::SimdAddAcc            0      0.00%     79.21% # Type of FU issued
system.switch_cpus.iq.FU_type_0::SimdAlu          409      0.00%     79.21% # Type of FU issued
system.switch_cpus.iq.FU_type_0::SimdCmp            0      0.00%     79.21% # Type of FU issued
system.switch_cpus.iq.FU_type_0::SimdCvt           16      0.00%     79.21% # Type of FU issued
system.switch_cpus.iq.FU_type_0::SimdMisc         2601      0.01%     79.22% # Type of FU issued
system.switch_cpus.iq.FU_type_0::SimdMult            0      0.00%     79.22% # Type of FU issued
system.switch_cpus.iq.FU_type_0::SimdMultAcc            0      0.00%     79.22% # Type of FU issued
system.switch_cpus.iq.FU_type_0::SimdShift            0      0.00%     79.22% # Type of FU issued
system.switch_cpus.iq.FU_type_0::SimdShiftAcc            0      0.00%     79.22% # Type of FU issued
system.switch_cpus.iq.FU_type_0::SimdDiv            0      0.00%     79.22% # Type of FU issued
system.switch_cpus.iq.FU_type_0::SimdSqrt            0      0.00%     79.22% # Type of FU issued
system.switch_cpus.iq.FU_type_0::SimdFloatAdd            0      0.00%     79.22% # Type of FU issued
system.switch_cpus.iq.FU_type_0::SimdFloatAlu            0      0.00%     79.22% # Type of FU issued
system.switch_cpus.iq.FU_type_0::SimdFloatCmp            0      0.00%     79.22% # Type of FU issued
system.switch_cpus.iq.FU_type_0::SimdFloatCvt            0      0.00%     79.22% # Type of FU issued
system.switch_cpus.iq.FU_type_0::SimdFloatDiv            0      0.00%     79.22% # Type of FU issued
system.switch_cpus.iq.FU_type_0::SimdFloatMisc            0      0.00%     79.22% # Type of FU issued
system.switch_cpus.iq.FU_type_0::SimdFloatMult            0      0.00%     79.22% # Type of FU issued
system.switch_cpus.iq.FU_type_0::SimdFloatMultAcc            0      0.00%     79.22% # Type of FU issued
system.switch_cpus.iq.FU_type_0::SimdFloatSqrt            0      0.00%     79.22% # Type of FU issued
system.switch_cpus.iq.FU_type_0::SimdReduceAdd            0      0.00%     79.22% # Type of FU issued
system.switch_cpus.iq.FU_type_0::SimdReduceAlu            0      0.00%     79.22% # Type of FU issued
system.switch_cpus.iq.FU_type_0::SimdReduceCmp            0      0.00%     79.22% # Type of FU issued
system.switch_cpus.iq.FU_type_0::SimdFloatReduceAdd            0      0.00%     79.22% # Type of FU issued
system.switch_cpus.iq.FU_type_0::SimdFloatReduceCmp            0      0.00%     79.22% # Type of FU issued
system.switch_cpus.iq.FU_type_0::SimdAes            0      0.00%     79.22% # Type of FU issued
system.switch_cpus.iq.FU_type_0::SimdAesMix            0      0.00%     79.22% # Type of FU issued
system.switch_cpus.iq.FU_type_0::SimdSha1Hash            0      0.00%     79.22% # Type of FU issued
system.switch_cpus.iq.FU_type_0::SimdSha1Hash2            0      0.00%     79.22% # Type of FU issued
system.switch_cpus.iq.FU_type_0::SimdSha256Hash            0      0.00%     79.22% # Type of FU issued
system.switch_cpus.iq.FU_type_0::SimdSha256Hash2            0      0.00%     79.22% # Type of FU issued
system.switch_cpus.iq.FU_type_0::SimdShaSigma2            0      0.00%     79.22% # Type of FU issued
system.switch_cpus.iq.FU_type_0::SimdShaSigma3            0      0.00%     79.22% # Type of FU issued
system.switch_cpus.iq.FU_type_0::SimdPredAlu            0      0.00%     79.22% # Type of FU issued
system.switch_cpus.iq.FU_type_0::MemRead      4031311     10.28%     89.50% # Type of FU issued
system.switch_cpus.iq.FU_type_0::MemWrite      3302067      8.42%     97.91% # Type of FU issued
system.switch_cpus.iq.FU_type_0::FloatMemRead       413161      1.05%     98.97% # Type of FU issued
system.switch_cpus.iq.FU_type_0::FloatMemWrite       404914      1.03%    100.00% # Type of FU issued
system.switch_cpus.iq.FU_type_0::IprAccess            0      0.00%    100.00% # Type of FU issued
system.switch_cpus.iq.FU_type_0::InstPrefetch            0      0.00%    100.00% # Type of FU issued
system.switch_cpus.iq.FU_type_0::total       39230209                       # Type of FU issued
system.switch_cpus.iq.fp_alu_accesses          970147                       # Number of floating point alu accesses
system.switch_cpus.iq.fp_inst_queue_reads      1799551                       # Number of floating instruction queue reads
system.switch_cpus.iq.fp_inst_queue_wakeup_accesses       811299                       # Number of floating instruction queue wakeup accesses
system.switch_cpus.iq.fp_inst_queue_writes      1629772                       # Number of floating instruction queue writes
system.switch_cpus.iq.fu_busy_cnt              444162                       # FU busy when requested
system.switch_cpus.iq.fu_busy_rate           0.011322                       # FU busy rate (busy events/executed inst)
system.switch_cpus.iq.fu_full::No_OpClass            0      0.00%      0.00% # attempts to use FU when none available
system.switch_cpus.iq.fu_full::IntAlu          220505     49.65%     49.65% # attempts to use FU when none available
system.switch_cpus.iq.fu_full::IntMult              0      0.00%     49.65% # attempts to use FU when none available
system.switch_cpus.iq.fu_full::IntDiv               0      0.00%     49.65% # attempts to use FU when none available
system.switch_cpus.iq.fu_full::FloatAdd             0      0.00%     49.65% # attempts to use FU when none available
system.switch_cpus.iq.fu_full::FloatCmp             0      0.00%     49.65% # attempts to use FU when none available
system.switch_cpus.iq.fu_full::FloatCvt             0      0.00%     49.65% # attempts to use FU when none available
system.switch_cpus.iq.fu_full::FloatMult            0      0.00%     49.65% # attempts to use FU when none available
system.switch_cpus.iq.fu_full::FloatMultAcc            0      0.00%     49.65% # attempts to use FU when none available
system.switch_cpus.iq.fu_full::FloatDiv             0      0.00%     49.65% # attempts to use FU when none available
system.switch_cpus.iq.fu_full::FloatMisc            0      0.00%     49.65% # attempts to use FU when none available
system.switch_cpus.iq.fu_full::FloatSqrt            0      0.00%     49.65% # attempts to use FU when none available
system.switch_cpus.iq.fu_full::SimdAdd              0      0.00%     49.65% # attempts to use FU when none available
system.switch_cpus.iq.fu_full::SimdAddAcc            0      0.00%     49.65% # attempts to use FU when none available
system.switch_cpus.iq.fu_full::SimdAlu              1      0.00%     49.65% # attempts to use FU when none available
system.switch_cpus.iq.fu_full::SimdCmp              0      0.00%     49.65% # attempts to use FU when none available
system.switch_cpus.iq.fu_full::SimdCvt              0      0.00%     49.65% # attempts to use FU when none available
system.switch_cpus.iq.fu_full::SimdMisc             0      0.00%     49.65% # attempts to use FU when none available
system.switch_cpus.iq.fu_full::SimdMult             0      0.00%     49.65% # attempts to use FU when none available
system.switch_cpus.iq.fu_full::SimdMultAcc            0      0.00%     49.65% # attempts to use FU when none available
system.switch_cpus.iq.fu_full::SimdShift            0      0.00%     49.65% # attempts to use FU when none available
system.switch_cpus.iq.fu_full::SimdShiftAcc            0      0.00%     49.65% # attempts to use FU when none available
system.switch_cpus.iq.fu_full::SimdDiv              0      0.00%     49.65% # attempts to use FU when none available
system.switch_cpus.iq.fu_full::SimdSqrt             0      0.00%     49.65% # attempts to use FU when none available
system.switch_cpus.iq.fu_full::SimdFloatAdd            0      0.00%     49.65% # attempts to use FU when none available
system.switch_cpus.iq.fu_full::SimdFloatAlu            0      0.00%     49.65% # attempts to use FU when none available
system.switch_cpus.iq.fu_full::SimdFloatCmp            0      0.00%     49.65% # attempts to use FU when none available
system.switch_cpus.iq.fu_full::SimdFloatCvt            0      0.00%     49.65% # attempts to use FU when none available
system.switch_cpus.iq.fu_full::SimdFloatDiv            0      0.00%     49.65% # attempts to use FU when none available
system.switch_cpus.iq.fu_full::SimdFloatMisc            0      0.00%     49.65% # attempts to use FU when none available
system.switch_cpus.iq.fu_full::SimdFloatMult            0      0.00%     49.65% # attempts to use FU when none available
system.switch_cpus.iq.fu_full::SimdFloatMultAcc            0      0.00%     49.65% # attempts to use FU when none available
system.switch_cpus.iq.fu_full::SimdFloatSqrt            0      0.00%     49.65% # attempts to use FU when none available
system.switch_cpus.iq.fu_full::SimdReduceAdd            0      0.00%     49.65% # attempts to use FU when none available
system.switch_cpus.iq.fu_full::SimdReduceAlu            0      0.00%     49.65% # attempts to use FU when none available
system.switch_cpus.iq.fu_full::SimdReduceCmp            0      0.00%     49.65% # attempts to use FU when none available
system.switch_cpus.iq.fu_full::SimdFloatReduceAdd            0      0.00%     49.65% # attempts to use FU when none available
system.switch_cpus.iq.fu_full::SimdFloatReduceCmp            0      0.00%     49.65% # attempts to use FU when none available
system.switch_cpus.iq.fu_full::SimdAes              0      0.00%     49.65% # attempts to use FU when none available
system.switch_cpus.iq.fu_full::SimdAesMix            0      0.00%     49.65% # attempts to use FU when none available
system.switch_cpus.iq.fu_full::SimdSha1Hash            0      0.00%     49.65% # attempts to use FU when none available
system.switch_cpus.iq.fu_full::SimdSha1Hash2            0      0.00%     49.65% # attempts to use FU when none available
system.switch_cpus.iq.fu_full::SimdSha256Hash            0      0.00%     49.65% # attempts to use FU when none available
system.switch_cpus.iq.fu_full::SimdSha256Hash2            0      0.00%     49.65% # attempts to use FU when none available
system.switch_cpus.iq.fu_full::SimdShaSigma2            0      0.00%     49.65% # attempts to use FU when none available
system.switch_cpus.iq.fu_full::SimdShaSigma3            0      0.00%     49.65% # attempts to use FU when none available
system.switch_cpus.iq.fu_full::SimdPredAlu            0      0.00%     49.65% # attempts to use FU when none available
system.switch_cpus.iq.fu_full::MemRead          15397      3.47%     53.11% # attempts to use FU when none available
system.switch_cpus.iq.fu_full::MemWrite         66205     14.91%     68.02% # attempts to use FU when none available
system.switch_cpus.iq.fu_full::FloatMemRead       116726     26.28%     94.30% # attempts to use FU when none available
system.switch_cpus.iq.fu_full::FloatMemWrite        25328      5.70%    100.00% # attempts to use FU when none available
system.switch_cpus.iq.fu_full::IprAccess            0      0.00%    100.00% # attempts to use FU when none available
system.switch_cpus.iq.fu_full::InstPrefetch            0      0.00%    100.00% # attempts to use FU when none available
system.switch_cpus.iq.int_alu_accesses       38481335                       # Number of integer alu accesses
system.switch_cpus.iq.int_inst_queue_reads    148775761                       # Number of integer instruction queue reads
system.switch_cpus.iq.int_inst_queue_wakeup_accesses     35798605                       # Number of integer instruction queue wakeup accesses
system.switch_cpus.iq.int_inst_queue_writes     69059308                       # Number of integer instruction queue writes
system.switch_cpus.iq.iqInstsAdded           43153020                       # Number of instructions added to the IQ (excludes non-spec)
system.switch_cpus.iq.iqInstsIssued          39230209                       # Number of instructions issued
system.switch_cpus.iq.iqNonSpecInstsAdded         1667                       # Number of non-speculative instructions added to the IQ
system.switch_cpus.iq.iqSquashedInstsExamined     27533021                       # Number of squashed instructions iterated over during squash; mainly for profiling
system.switch_cpus.iq.iqSquashedInstsIssued        10637                       # Number of squashed instructions issued
system.switch_cpus.iq.iqSquashedNonSpecRemoved         1542                       # Number of squashed non-spec instructions that were removed
system.switch_cpus.iq.iqSquashedOperandsExamined     20973198                       # Number of squashed operands that are examined and possibly removed from graph
system.switch_cpus.iq.issued_per_cycle::samples     71660099                       # Number of insts issued each cycle
system.switch_cpus.iq.issued_per_cycle::mean     0.547448                       # Number of insts issued each cycle
system.switch_cpus.iq.issued_per_cycle::stdev     1.570821                       # Number of insts issued each cycle
system.switch_cpus.iq.issued_per_cycle::underflows            0      0.00%      0.00% # Number of insts issued each cycle
system.switch_cpus.iq.issued_per_cycle::0     62005769     86.53%     86.53% # Number of insts issued each cycle
system.switch_cpus.iq.issued_per_cycle::1      1104644      1.54%     88.07% # Number of insts issued each cycle
system.switch_cpus.iq.issued_per_cycle::2      1095588      1.53%     89.60% # Number of insts issued each cycle
system.switch_cpus.iq.issued_per_cycle::3      2468737      3.45%     93.04% # Number of insts issued each cycle
system.switch_cpus.iq.issued_per_cycle::4      1013514      1.41%     94.46% # Number of insts issued each cycle
system.switch_cpus.iq.issued_per_cycle::5       949390      1.32%     95.78% # Number of insts issued each cycle
system.switch_cpus.iq.issued_per_cycle::6      1994867      2.78%     98.57% # Number of insts issued each cycle
system.switch_cpus.iq.issued_per_cycle::7       462750      0.65%     99.21% # Number of insts issued each cycle
system.switch_cpus.iq.issued_per_cycle::8       564840      0.79%    100.00% # Number of insts issued each cycle
system.switch_cpus.iq.issued_per_cycle::overflows            0      0.00%    100.00% # Number of insts issued each cycle
system.switch_cpus.iq.issued_per_cycle::min_value            0                       # Number of insts issued each cycle
system.switch_cpus.iq.issued_per_cycle::max_value            8                       # Number of insts issued each cycle
system.switch_cpus.iq.issued_per_cycle::total     71660099                       # Number of insts issued each cycle
system.switch_cpus.iq.rate                   0.547162                       # Inst issue rate
system.switch_cpus.iq.vec_alu_accesses              0                       # Number of vector alu accesses
system.switch_cpus.iq.vec_inst_queue_reads            0                       # Number of vector instruction queue reads
system.switch_cpus.iq.vec_inst_queue_wakeup_accesses            0                       # Number of vector instruction queue wakeup accesses
system.switch_cpus.iq.vec_inst_queue_writes            0                       # Number of vector instruction queue writes
system.switch_cpus.memDep0.conflictingLoads       413931                       # Number of conflicting loads.
system.switch_cpus.memDep0.conflictingStores        80251                       # Number of conflicting stores.
system.switch_cpus.memDep0.insertedLoads      4700317                       # Number of loads inserted to the mem dependence unit.
system.switch_cpus.memDep0.insertedStores      4001527                       # Number of stores inserted to the mem dependence unit.
system.switch_cpus.misc_regfile_reads        15683051                       # number of misc regfile reads
system.switch_cpus.numCycles                 71697611                       # number of cpu cycles simulated
system.switch_cpus.numWorkItemsCompleted            0                       # number of work items this cpu completed
system.switch_cpus.numWorkItemsStarted              0                       # number of work items this cpu started
system.switch_cpus.timesIdled                     305                       # Number of times that the entire CPU went into an idle state and unscheduled itself
system.tol2bus.snoop_filter.hit_multi_requests            1                       # Number of requests hitting in the snoop filter with multiple (>1) holders of the requested data.
system.tol2bus.snoop_filter.hit_multi_snoops            0                       # Number of snoops hitting in the snoop filter with multiple (>1) holders of the requested data.
system.tol2bus.snoop_filter.hit_single_requests       367194                       # Number of requests hitting in the snoop filter with a single holder of the requested data.
system.tol2bus.snoop_filter.hit_single_snoops          164                       # Number of snoops hitting in the snoop filter with a single holder of the requested data.
system.tol2bus.snoop_filter.tot_requests       734552                       # Total number of requests made to the snoop filter.
system.tol2bus.snoop_filter.tot_snoops            164                       # Total number of snoops made to the snoop filter.
system.clk_domain.clock                          1000                       # Clock period in ticks
system.cpu.branchPred.lookups                       0                       # Number of BP lookups
system.cpu.branchPred.condPredicted                 0                       # Number of conditional branches predicted
system.cpu.branchPred.condIncorrect                 0                       # Number of conditional branches incorrect
system.cpu.branchPred.BTBLookups                    0                       # Number of BTB lookups
system.cpu.branchPred.BTBHits                       0                       # Number of BTB hits
system.cpu.branchPred.BTBHitPct                   nan                       # BTB Hit Percentage
system.cpu.branchPred.RASUsed                       0                       # Number of times the RAS was used to get a target.
system.cpu.branchPred.RASIncorrect                  0                       # Number of incorrect RAS predictions.
system.cpu.branchPred.indirectLookups               0                       # Number of indirect predictor lookups.
system.cpu.branchPred.indirectHits                  0                       # Number of indirect target hits.
system.cpu.branchPred.indirectMisses                0                       # Number of indirect misses.
system.cpu.branchPred.indirectMispredicted            0                       # Number of mispredicted indirect branches.
system.cpu.dcache.demand_hits::.switch_cpus.data      4662106                       # number of demand (read+write) hits
system.cpu.dcache.demand_hits::total          4662106                       # number of demand (read+write) hits
system.cpu.dcache.overall_hits::.switch_cpus.data      4758046                       # number of overall hits
system.cpu.dcache.overall_hits::total         4758046                       # number of overall hits
system.cpu.dcache.demand_misses::.switch_cpus.data       371271                       # number of demand (read+write) misses
system.cpu.dcache.demand_misses::total         371271                       # number of demand (read+write) misses
system.cpu.dcache.overall_misses::.switch_cpus.data       373616                       # number of overall misses
system.cpu.dcache.overall_misses::total        373616                       # number of overall misses
system.cpu.dcache.demand_miss_latency::.switch_cpus.data  29899451997                       # number of demand (read+write) miss cycles
system.cpu.dcache.demand_miss_latency::total  29899451997                       # number of demand (read+write) miss cycles
system.cpu.dcache.overall_miss_latency::.switch_cpus.data  29899451997                       # number of overall miss cycles
system.cpu.dcache.overall_miss_latency::total  29899451997                       # number of overall miss cycles
system.cpu.dcache.demand_accesses::.switch_cpus.data      5033377                       # number of demand (read+write) accesses
system.cpu.dcache.demand_accesses::total      5033377                       # number of demand (read+write) accesses
system.cpu.dcache.overall_accesses::.switch_cpus.data      5131662                       # number of overall (read+write) accesses
system.cpu.dcache.overall_accesses::total      5131662                       # number of overall (read+write) accesses
system.cpu.dcache.demand_miss_rate::.switch_cpus.data     0.073762                       # miss rate for demand accesses
system.cpu.dcache.demand_miss_rate::total     0.073762                       # miss rate for demand accesses
system.cpu.dcache.overall_miss_rate::.switch_cpus.data     0.072806                       # miss rate for overall accesses
system.cpu.dcache.overall_miss_rate::total     0.072806                       # miss rate for overall accesses
system.cpu.dcache.demand_avg_miss_latency::.switch_cpus.data 80532.689052                       # average overall miss latency
system.cpu.dcache.demand_avg_miss_latency::total 80532.689052                       # average overall miss latency
system.cpu.dcache.overall_avg_miss_latency::.switch_cpus.data 80027.225807                       # average overall miss latency
system.cpu.dcache.overall_avg_miss_latency::total 80027.225807                       # average overall miss latency
system.cpu.dcache.blocked_cycles::no_mshrs          598                       # number of cycles access was blocked
system.cpu.dcache.blocked_cycles::no_targets          617                       # number of cycles access was blocked
system.cpu.dcache.blocked::no_mshrs                24                       # number of cycles access was blocked
system.cpu.dcache.blocked::no_targets               7                       # number of cycles access was blocked
system.cpu.dcache.avg_blocked_cycles::no_mshrs    24.916667                       # average number of cycles each access was blocked
system.cpu.dcache.avg_blocked_cycles::no_targets    88.142857                       # average number of cycles each access was blocked
system.cpu.dcache.writebacks::.writebacks       364341                       # number of writebacks
system.cpu.dcache.writebacks::total            364341                       # number of writebacks
system.cpu.dcache.demand_mshr_hits::.switch_cpus.data         5187                       # number of demand (read+write) MSHR hits
system.cpu.dcache.demand_mshr_hits::total         5187                       # number of demand (read+write) MSHR hits
system.cpu.dcache.overall_mshr_hits::.switch_cpus.data         5187                       # number of overall MSHR hits
system.cpu.dcache.overall_mshr_hits::total         5187                       # number of overall MSHR hits
system.cpu.dcache.demand_mshr_misses::.switch_cpus.data       366084                       # number of demand (read+write) MSHR misses
system.cpu.dcache.demand_mshr_misses::total       366084                       # number of demand (read+write) MSHR misses
system.cpu.dcache.overall_mshr_misses::.switch_cpus.data       366769                       # number of overall MSHR misses
system.cpu.dcache.overall_mshr_misses::total       366769                       # number of overall MSHR misses
system.cpu.dcache.demand_mshr_miss_latency::.switch_cpus.data  29439615497                       # number of demand (read+write) MSHR miss cycles
system.cpu.dcache.demand_mshr_miss_latency::total  29439615497                       # number of demand (read+write) MSHR miss cycles
system.cpu.dcache.overall_mshr_miss_latency::.switch_cpus.data  29482115497                       # number of overall MSHR miss cycles
system.cpu.dcache.overall_mshr_miss_latency::total  29482115497                       # number of overall MSHR miss cycles
system.cpu.dcache.demand_mshr_miss_rate::.switch_cpus.data     0.072731                       # mshr miss rate for demand accesses
system.cpu.dcache.demand_mshr_miss_rate::total     0.072731                       # mshr miss rate for demand accesses
system.cpu.dcache.overall_mshr_miss_rate::.switch_cpus.data     0.071472                       # mshr miss rate for overall accesses
system.cpu.dcache.overall_mshr_miss_rate::total     0.071472                       # mshr miss rate for overall accesses
system.cpu.dcache.demand_avg_mshr_miss_latency::.switch_cpus.data 80417.651405                       # average overall mshr miss latency
system.cpu.dcache.demand_avg_mshr_miss_latency::total 80417.651405                       # average overall mshr miss latency
system.cpu.dcache.overall_avg_mshr_miss_latency::.switch_cpus.data 80383.335279                       # average overall mshr miss latency
system.cpu.dcache.overall_avg_mshr_miss_latency::total 80383.335279                       # average overall mshr miss latency
system.cpu.dcache.replacements                 366768                       # number of replacements
system.cpu.dcache.ReadReq_hits::.switch_cpus.data      4020341                       # number of ReadReq hits
system.cpu.dcache.ReadReq_hits::total         4020341                       # number of ReadReq hits
system.cpu.dcache.ReadReq_misses::.switch_cpus.data         9445                       # number of ReadReq misses
system.cpu.dcache.ReadReq_misses::total          9445                       # number of ReadReq misses
system.cpu.dcache.ReadReq_miss_latency::.switch_cpus.data    162966000                       # number of ReadReq miss cycles
system.cpu.dcache.ReadReq_miss_latency::total    162966000                       # number of ReadReq miss cycles
system.cpu.dcache.ReadReq_accesses::.switch_cpus.data      4029786                       # number of ReadReq accesses(hits+misses)
system.cpu.dcache.ReadReq_accesses::total      4029786                       # number of ReadReq accesses(hits+misses)
system.cpu.dcache.ReadReq_miss_rate::.switch_cpus.data     0.002344                       # miss rate for ReadReq accesses
system.cpu.dcache.ReadReq_miss_rate::total     0.002344                       # miss rate for ReadReq accesses
system.cpu.dcache.ReadReq_avg_miss_latency::.switch_cpus.data 17254.208576                       # average ReadReq miss latency
system.cpu.dcache.ReadReq_avg_miss_latency::total 17254.208576                       # average ReadReq miss latency
system.cpu.dcache.ReadReq_mshr_hits::.switch_cpus.data         5180                       # number of ReadReq MSHR hits
system.cpu.dcache.ReadReq_mshr_hits::total         5180                       # number of ReadReq MSHR hits
system.cpu.dcache.ReadReq_mshr_misses::.switch_cpus.data         4265                       # number of ReadReq MSHR misses
system.cpu.dcache.ReadReq_mshr_misses::total         4265                       # number of ReadReq MSHR misses
system.cpu.dcache.ReadReq_mshr_miss_latency::.switch_cpus.data     65384000                       # number of ReadReq MSHR miss cycles
system.cpu.dcache.ReadReq_mshr_miss_latency::total     65384000                       # number of ReadReq MSHR miss cycles
system.cpu.dcache.ReadReq_mshr_miss_rate::.switch_cpus.data     0.001058                       # mshr miss rate for ReadReq accesses
system.cpu.dcache.ReadReq_mshr_miss_rate::total     0.001058                       # mshr miss rate for ReadReq accesses
system.cpu.dcache.ReadReq_avg_mshr_miss_latency::.switch_cpus.data 15330.363423                       # average ReadReq mshr miss latency
system.cpu.dcache.ReadReq_avg_mshr_miss_latency::total 15330.363423                       # average ReadReq mshr miss latency
system.cpu.dcache.WriteReq_hits::.switch_cpus.data       641765                       # number of WriteReq hits
system.cpu.dcache.WriteReq_hits::total         641765                       # number of WriteReq hits
system.cpu.dcache.WriteReq_misses::.switch_cpus.data       361826                       # number of WriteReq misses
system.cpu.dcache.WriteReq_misses::total       361826                       # number of WriteReq misses
system.cpu.dcache.WriteReq_miss_latency::.switch_cpus.data  29736485997                       # number of WriteReq miss cycles
system.cpu.dcache.WriteReq_miss_latency::total  29736485997                       # number of WriteReq miss cycles
system.cpu.dcache.WriteReq_accesses::.switch_cpus.data      1003591                       # number of WriteReq accesses(hits+misses)
system.cpu.dcache.WriteReq_accesses::total      1003591                       # number of WriteReq accesses(hits+misses)
system.cpu.dcache.WriteReq_miss_rate::.switch_cpus.data     0.360531                       # miss rate for WriteReq accesses
system.cpu.dcache.WriteReq_miss_rate::total     0.360531                       # miss rate for WriteReq accesses
system.cpu.dcache.WriteReq_avg_miss_latency::.switch_cpus.data 82184.491985                       # average WriteReq miss latency
system.cpu.dcache.WriteReq_avg_miss_latency::total 82184.491985                       # average WriteReq miss latency
system.cpu.dcache.WriteReq_mshr_hits::.switch_cpus.data            7                       # number of WriteReq MSHR hits
system.cpu.dcache.WriteReq_mshr_hits::total            7                       # number of WriteReq MSHR hits
system.cpu.dcache.WriteReq_mshr_misses::.switch_cpus.data       361819                       # number of WriteReq MSHR misses
system.cpu.dcache.WriteReq_mshr_misses::total       361819                       # number of WriteReq MSHR misses
system.cpu.dcache.WriteReq_mshr_miss_latency::.switch_cpus.data  29374231497                       # number of WriteReq MSHR miss cycles
system.cpu.dcache.WriteReq_mshr_miss_latency::total  29374231497                       # number of WriteReq MSHR miss cycles
system.cpu.dcache.WriteReq_mshr_miss_rate::.switch_cpus.data     0.360524                       # mshr miss rate for WriteReq accesses
system.cpu.dcache.WriteReq_mshr_miss_rate::total     0.360524                       # mshr miss rate for WriteReq accesses
system.cpu.dcache.WriteReq_avg_mshr_miss_latency::.switch_cpus.data 81184.878342                       # average WriteReq mshr miss latency
system.cpu.dcache.WriteReq_avg_mshr_miss_latency::total 81184.878342                       # average WriteReq mshr miss latency
system.cpu.dcache.SoftPFReq_hits::.switch_cpus.data        95940                       # number of SoftPFReq hits
system.cpu.dcache.SoftPFReq_hits::total         95940                       # number of SoftPFReq hits
system.cpu.dcache.SoftPFReq_misses::.switch_cpus.data         2345                       # number of SoftPFReq misses
system.cpu.dcache.SoftPFReq_misses::total         2345                       # number of SoftPFReq misses
system.cpu.dcache.SoftPFReq_accesses::.switch_cpus.data        98285                       # number of SoftPFReq accesses(hits+misses)
system.cpu.dcache.SoftPFReq_accesses::total        98285                       # number of SoftPFReq accesses(hits+misses)
system.cpu.dcache.SoftPFReq_miss_rate::.switch_cpus.data     0.023859                       # miss rate for SoftPFReq accesses
system.cpu.dcache.SoftPFReq_miss_rate::total     0.023859                       # miss rate for SoftPFReq accesses
system.cpu.dcache.SoftPFReq_mshr_misses::.switch_cpus.data          685                       # number of SoftPFReq MSHR misses
system.cpu.dcache.SoftPFReq_mshr_misses::total          685                       # number of SoftPFReq MSHR misses
system.cpu.dcache.SoftPFReq_mshr_miss_latency::.switch_cpus.data     42500000                       # number of SoftPFReq MSHR miss cycles
system.cpu.dcache.SoftPFReq_mshr_miss_latency::total     42500000                       # number of SoftPFReq MSHR miss cycles
system.cpu.dcache.SoftPFReq_mshr_miss_rate::.switch_cpus.data     0.006970                       # mshr miss rate for SoftPFReq accesses
system.cpu.dcache.SoftPFReq_mshr_miss_rate::total     0.006970                       # mshr miss rate for SoftPFReq accesses
system.cpu.dcache.SoftPFReq_avg_mshr_miss_latency::.switch_cpus.data 62043.795620                       # average SoftPFReq mshr miss latency
system.cpu.dcache.SoftPFReq_avg_mshr_miss_latency::total 62043.795620                       # average SoftPFReq mshr miss latency
system.cpu.dcache.power_state.pwrStateResidencyTicks::UNDEFINED  36882138500                       # Cumulative time (in ticks) in various power states
system.cpu.dcache.tags.tagsinuse          1023.116187                       # Cycle average of tags in use
system.cpu.dcache.tags.total_refs             5302521                       # Total number of references to valid blocks.
system.cpu.dcache.tags.sampled_refs            367792                       # Sample count of references to valid blocks.
system.cpu.dcache.tags.avg_refs             14.417173                       # Average number of references to valid blocks.
system.cpu.dcache.tags.warmup_cycle                 0                       # Cycle when the warmup percentage was hit.
system.cpu.dcache.tags.occ_blocks::.cpu.data   854.697194                       # Average occupied blocks per requestor
system.cpu.dcache.tags.occ_blocks::.switch_cpus.data   168.418993                       # Average occupied blocks per requestor
system.cpu.dcache.tags.occ_percent::.cpu.data     0.834665                       # Average percentage of cache occupancy
system.cpu.dcache.tags.occ_percent::.switch_cpus.data     0.164472                       # Average percentage of cache occupancy
system.cpu.dcache.tags.occ_percent::total     0.999137                       # Average percentage of cache occupancy
system.cpu.dcache.tags.occ_task_id_blocks::1024         1024                       # Occupied blocks per task id
system.cpu.dcache.tags.age_task_id_blocks_1024::0            2                       # Occupied blocks per task id
system.cpu.dcache.tags.age_task_id_blocks_1024::1           23                       # Occupied blocks per task id
system.cpu.dcache.tags.age_task_id_blocks_1024::2          889                       # Occupied blocks per task id
system.cpu.dcache.tags.age_task_id_blocks_1024::3          101                       # Occupied blocks per task id
system.cpu.dcache.tags.age_task_id_blocks_1024::4            9                       # Occupied blocks per task id
system.cpu.dcache.tags.occ_task_id_percent::1024            1                       # Percentage of cache occupancy per task id
system.cpu.dcache.tags.tag_accesses          10630093                       # Number of tag accesses
system.cpu.dcache.tags.data_accesses         10630093                       # Number of data accesses
system.cpu.dcache.tags.power_state.pwrStateResidencyTicks::UNDEFINED  36882138500                       # Cumulative time (in ticks) in various power states
system.cpu.dtb.rdAccesses                           0                       # TLB accesses on read requests
system.cpu.dtb.wrAccesses                           0                       # TLB accesses on write requests
system.cpu.dtb.rdMisses                             0                       # TLB misses on read requests
system.cpu.dtb.wrMisses                             0                       # TLB misses on write requests
system.cpu.dtb.walker.power_state.pwrStateResidencyTicks::UNDEFINED  36882138500                       # Cumulative time (in ticks) in various power states
system.cpu.dtb_walker_cache.blocked_cycles::no_mshrs            0                       # number of cycles access was blocked
system.cpu.dtb_walker_cache.blocked_cycles::no_targets            0                       # number of cycles access was blocked
system.cpu.dtb_walker_cache.blocked::no_mshrs            0                       # number of cycles access was blocked
system.cpu.dtb_walker_cache.blocked::no_targets            0                       # number of cycles access was blocked
system.cpu.dtb_walker_cache.avg_blocked_cycles::no_mshrs          nan                       # average number of cycles each access was blocked
system.cpu.dtb_walker_cache.avg_blocked_cycles::no_targets          nan                       # average number of cycles each access was blocked
system.cpu.dtb_walker_cache.replacements            0                       # number of replacements
system.cpu.dtb_walker_cache.power_state.pwrStateResidencyTicks::UNDEFINED  36882138500                       # Cumulative time (in ticks) in various power states
system.cpu.dtb_walker_cache.tags.tagsinuse            0                       # Cycle average of tags in use
system.cpu.dtb_walker_cache.tags.total_refs            0                       # Total number of references to valid blocks.
system.cpu.dtb_walker_cache.tags.sampled_refs            0                       # Sample count of references to valid blocks.
system.cpu.dtb_walker_cache.tags.avg_refs          nan                       # Average number of references to valid blocks.
system.cpu.dtb_walker_cache.tags.warmup_cycle            0                       # Cycle when the warmup percentage was hit.
system.cpu.dtb_walker_cache.tags.tag_accesses            0                       # Number of tag accesses
system.cpu.dtb_walker_cache.tags.data_accesses            0                       # Number of data accesses
system.cpu.dtb_walker_cache.tags.power_state.pwrStateResidencyTicks::UNDEFINED  36882138500                       # Cumulative time (in ticks) in various power states
system.cpu.icache.demand_hits::.switch_cpus.inst      2352407                       # number of demand (read+write) hits
system.cpu.icache.demand_hits::total          2352407                       # number of demand (read+write) hits
system.cpu.icache.overall_hits::.switch_cpus.inst      2352407                       # number of overall hits
system.cpu.icache.overall_hits::total         2352407                       # number of overall hits
system.cpu.icache.demand_misses::.switch_cpus.inst          844                       # number of demand (read+write) misses
system.cpu.icache.demand_misses::total            844                       # number of demand (read+write) misses
system.cpu.icache.overall_misses::.switch_cpus.inst          844                       # number of overall misses
system.cpu.icache.overall_misses::total           844                       # number of overall misses
system.cpu.icache.demand_miss_latency::.switch_cpus.inst     56817500                       # number of demand (read+write) miss cycles
system.cpu.icache.demand_miss_latency::total     56817500                       # number of demand (read+write) miss cycles
system.cpu.icache.overall_miss_latency::.switch_cpus.inst     56817500                       # number of overall miss cycles
system.cpu.icache.overall_miss_latency::total     56817500                       # number of overall miss cycles
system.cpu.icache.demand_accesses::.switch_cpus.inst      2353251                       # number of demand (read+write) accesses
system.cpu.icache.demand_accesses::total      2353251                       # number of demand (read+write) accesses
system.cpu.icache.overall_accesses::.switch_cpus.inst      2353251                       # number of overall (read+write) accesses
system.cpu.icache.overall_accesses::total      2353251                       # number of overall (read+write) accesses
system.cpu.icache.demand_miss_rate::.switch_cpus.inst     0.000359                       # miss rate for demand accesses
system.cpu.icache.demand_miss_rate::total     0.000359                       # miss rate for demand accesses
system.cpu.icache.overall_miss_rate::.switch_cpus.inst     0.000359                       # miss rate for overall accesses
system.cpu.icache.overall_miss_rate::total     0.000359                       # miss rate for overall accesses
system.cpu.icache.demand_avg_miss_latency::.switch_cpus.inst 67319.312796                       # average overall miss latency
system.cpu.icache.demand_avg_miss_latency::total 67319.312796                       # average overall miss latency
system.cpu.icache.overall_avg_miss_latency::.switch_cpus.inst 67319.312796                       # average overall miss latency
system.cpu.icache.overall_avg_miss_latency::total 67319.312796                       # average overall miss latency
system.cpu.icache.blocked_cycles::no_mshrs          222                       # number of cycles access was blocked
system.cpu.icache.blocked_cycles::no_targets            0                       # number of cycles access was blocked
system.cpu.icache.blocked::no_mshrs                 4                       # number of cycles access was blocked
system.cpu.icache.blocked::no_targets               0                       # number of cycles access was blocked
system.cpu.icache.avg_blocked_cycles::no_mshrs    55.500000                       # average number of cycles each access was blocked
system.cpu.icache.avg_blocked_cycles::no_targets          nan                       # average number of cycles each access was blocked
system.cpu.icache.writebacks::.writebacks          426                       # number of writebacks
system.cpu.icache.writebacks::total               426                       # number of writebacks
system.cpu.icache.demand_mshr_hits::.switch_cpus.inst          255                       # number of demand (read+write) MSHR hits
system.cpu.icache.demand_mshr_hits::total          255                       # number of demand (read+write) MSHR hits
system.cpu.icache.overall_mshr_hits::.switch_cpus.inst          255                       # number of overall MSHR hits
system.cpu.icache.overall_mshr_hits::total          255                       # number of overall MSHR hits
system.cpu.icache.demand_mshr_misses::.switch_cpus.inst          589                       # number of demand (read+write) MSHR misses
system.cpu.icache.demand_mshr_misses::total          589                       # number of demand (read+write) MSHR misses
system.cpu.icache.overall_mshr_misses::.switch_cpus.inst          589                       # number of overall MSHR misses
system.cpu.icache.overall_mshr_misses::total          589                       # number of overall MSHR misses
system.cpu.icache.demand_mshr_miss_latency::.switch_cpus.inst     41306500                       # number of demand (read+write) MSHR miss cycles
system.cpu.icache.demand_mshr_miss_latency::total     41306500                       # number of demand (read+write) MSHR miss cycles
system.cpu.icache.overall_mshr_miss_latency::.switch_cpus.inst     41306500                       # number of overall MSHR miss cycles
system.cpu.icache.overall_mshr_miss_latency::total     41306500                       # number of overall MSHR miss cycles
system.cpu.icache.demand_mshr_miss_rate::.switch_cpus.inst     0.000250                       # mshr miss rate for demand accesses
system.cpu.icache.demand_mshr_miss_rate::total     0.000250                       # mshr miss rate for demand accesses
system.cpu.icache.overall_mshr_miss_rate::.switch_cpus.inst     0.000250                       # mshr miss rate for overall accesses
system.cpu.icache.overall_mshr_miss_rate::total     0.000250                       # mshr miss rate for overall accesses
system.cpu.icache.demand_avg_mshr_miss_latency::.switch_cpus.inst 70129.881154                       # average overall mshr miss latency
system.cpu.icache.demand_avg_mshr_miss_latency::total 70129.881154                       # average overall mshr miss latency
system.cpu.icache.overall_avg_mshr_miss_latency::.switch_cpus.inst 70129.881154                       # average overall mshr miss latency
system.cpu.icache.overall_avg_mshr_miss_latency::total 70129.881154                       # average overall mshr miss latency
system.cpu.icache.replacements                    426                       # number of replacements
system.cpu.icache.ReadReq_hits::.switch_cpus.inst      2352407                       # number of ReadReq hits
system.cpu.icache.ReadReq_hits::total         2352407                       # number of ReadReq hits
system.cpu.icache.ReadReq_misses::.switch_cpus.inst          844                       # number of ReadReq misses
system.cpu.icache.ReadReq_misses::total           844                       # number of ReadReq misses
system.cpu.icache.ReadReq_miss_latency::.switch_cpus.inst     56817500                       # number of ReadReq miss cycles
system.cpu.icache.ReadReq_miss_latency::total     56817500                       # number of ReadReq miss cycles
system.cpu.icache.ReadReq_accesses::.switch_cpus.inst      2353251                       # number of ReadReq accesses(hits+misses)
system.cpu.icache.ReadReq_accesses::total      2353251                       # number of ReadReq accesses(hits+misses)
system.cpu.icache.ReadReq_miss_rate::.switch_cpus.inst     0.000359                       # miss rate for ReadReq accesses
system.cpu.icache.ReadReq_miss_rate::total     0.000359                       # miss rate for ReadReq accesses
system.cpu.icache.ReadReq_avg_miss_latency::.switch_cpus.inst 67319.312796                       # average ReadReq miss latency
system.cpu.icache.ReadReq_avg_miss_latency::total 67319.312796                       # average ReadReq miss latency
system.cpu.icache.ReadReq_mshr_hits::.switch_cpus.inst          255                       # number of ReadReq MSHR hits
system.cpu.icache.ReadReq_mshr_hits::total          255                       # number of ReadReq MSHR hits
system.cpu.icache.ReadReq_mshr_misses::.switch_cpus.inst          589                       # number of ReadReq MSHR misses
system.cpu.icache.ReadReq_mshr_misses::total          589                       # number of ReadReq MSHR misses
system.cpu.icache.ReadReq_mshr_miss_latency::.switch_cpus.inst     41306500                       # number of ReadReq MSHR miss cycles
system.cpu.icache.ReadReq_mshr_miss_latency::total     41306500                       # number of ReadReq MSHR miss cycles
system.cpu.icache.ReadReq_mshr_miss_rate::.switch_cpus.inst     0.000250                       # mshr miss rate for ReadReq accesses
system.cpu.icache.ReadReq_mshr_miss_rate::total     0.000250                       # mshr miss rate for ReadReq accesses
system.cpu.icache.ReadReq_avg_mshr_miss_latency::.switch_cpus.inst 70129.881154                       # average ReadReq mshr miss latency
system.cpu.icache.ReadReq_avg_mshr_miss_latency::total 70129.881154                       # average ReadReq mshr miss latency
system.cpu.icache.power_state.pwrStateResidencyTicks::UNDEFINED  36882138500                       # Cumulative time (in ticks) in various power states
system.cpu.icache.tags.tagsinuse           805.173354                       # Cycle average of tags in use
system.cpu.icache.tags.total_refs             3604263                       # Total number of references to valid blocks.
system.cpu.icache.tags.sampled_refs              1372                       # Sample count of references to valid blocks.
system.cpu.icache.tags.avg_refs           2627.013848                       # Average number of references to valid blocks.
system.cpu.icache.tags.warmup_cycle                 0                       # Cycle when the warmup percentage was hit.
system.cpu.icache.tags.occ_blocks::.cpu.inst   740.647628                       # Average occupied blocks per requestor
system.cpu.icache.tags.occ_blocks::.switch_cpus.inst    64.525726                       # Average occupied blocks per requestor
system.cpu.icache.tags.occ_percent::.cpu.inst     0.723289                       # Average percentage of cache occupancy
system.cpu.icache.tags.occ_percent::.switch_cpus.inst     0.063013                       # Average percentage of cache occupancy
system.cpu.icache.tags.occ_percent::total     0.786302                       # Average percentage of cache occupancy
system.cpu.icache.tags.occ_task_id_blocks::1024          946                       # Occupied blocks per task id
system.cpu.icache.tags.age_task_id_blocks_1024::2            6                       # Occupied blocks per task id
system.cpu.icache.tags.age_task_id_blocks_1024::3          467                       # Occupied blocks per task id
system.cpu.icache.tags.age_task_id_blocks_1024::4          473                       # Occupied blocks per task id
system.cpu.icache.tags.occ_task_id_percent::1024     0.923828                       # Percentage of cache occupancy per task id
system.cpu.icache.tags.tag_accesses           4707091                       # Number of tag accesses
system.cpu.icache.tags.data_accesses          4707091                       # Number of data accesses
system.cpu.icache.tags.power_state.pwrStateResidencyTicks::UNDEFINED  36882138500                       # Cumulative time (in ticks) in various power states
system.cpu.interrupts.clk_domain.clock           8000                       # Clock period in ticks
system.cpu.itb.rdAccesses                           0                       # TLB accesses on read requests
system.cpu.itb.wrAccesses                           0                       # TLB accesses on write requests
system.cpu.itb.rdMisses                             0                       # TLB misses on read requests
system.cpu.itb.wrMisses                             0                       # TLB misses on write requests
system.cpu.itb.walker.power_state.pwrStateResidencyTicks::UNDEFINED  36882138500                       # Cumulative time (in ticks) in various power states
system.cpu.itb_walker_cache.blocked_cycles::no_mshrs            0                       # number of cycles access was blocked
system.cpu.itb_walker_cache.blocked_cycles::no_targets            0                       # number of cycles access was blocked
system.cpu.itb_walker_cache.blocked::no_mshrs            0                       # number of cycles access was blocked
system.cpu.itb_walker_cache.blocked::no_targets            0                       # number of cycles access was blocked
system.cpu.itb_walker_cache.avg_blocked_cycles::no_mshrs          nan                       # average number of cycles each access was blocked
system.cpu.itb_walker_cache.avg_blocked_cycles::no_targets          nan                       # average number of cycles each access was blocked
system.cpu.itb_walker_cache.replacements            0                       # number of replacements
system.cpu.itb_walker_cache.power_state.pwrStateResidencyTicks::UNDEFINED  36882138500                       # Cumulative time (in ticks) in various power states
system.cpu.itb_walker_cache.tags.tagsinuse            0                       # Cycle average of tags in use
system.cpu.itb_walker_cache.tags.total_refs            0                       # Total number of references to valid blocks.
system.cpu.itb_walker_cache.tags.sampled_refs            0                       # Sample count of references to valid blocks.
system.cpu.itb_walker_cache.tags.avg_refs          nan                       # Average number of references to valid blocks.
system.cpu.itb_walker_cache.tags.warmup_cycle            0                       # Cycle when the warmup percentage was hit.
system.cpu.itb_walker_cache.tags.tag_accesses            0                       # Number of tag accesses
system.cpu.itb_walker_cache.tags.data_accesses            0                       # Number of data accesses
system.cpu.itb_walker_cache.tags.power_state.pwrStateResidencyTicks::UNDEFINED  36882138500                       # Cumulative time (in ticks) in various power states
system.cpu.power_state.pwrStateResidencyTicks::OFF  35848805500                       # Cumulative time (in ticks) in various power states
system.cpu.thread_0.numInsts                        0                       # Number of Instructions committed
system.cpu.thread_0.numOps                          0                       # Number of Ops committed
system.cpu.thread_0.numMemRefs                      0                       # Number of Memory References
system.cpu_clk_domain.clock                       500                       # Clock period in ticks
system.cpu_voltage_domain.voltage                   1                       # Voltage in Volts
system.l2.demand_hits::.switch_cpus.inst           86                       # number of demand (read+write) hits
system.l2.demand_hits::.switch_cpus.data         5013                       # number of demand (read+write) hits
system.l2.demand_hits::total                     5099                       # number of demand (read+write) hits
system.l2.overall_hits::.switch_cpus.inst           86                       # number of overall hits
system.l2.overall_hits::.switch_cpus.data         5013                       # number of overall hits
system.l2.overall_hits::total                    5099                       # number of overall hits
system.l2.demand_misses::.switch_cpus.inst          503                       # number of demand (read+write) misses
system.l2.demand_misses::.switch_cpus.data       361756                       # number of demand (read+write) misses
system.l2.demand_misses::total                 362259                       # number of demand (read+write) misses
system.l2.overall_misses::.switch_cpus.inst          503                       # number of overall misses
system.l2.overall_misses::.switch_cpus.data       361756                       # number of overall misses
system.l2.overall_misses::total                362259                       # number of overall misses
system.l2.demand_miss_latency::.switch_cpus.inst     39510000                       # number of demand (read+write) miss cycles
system.l2.demand_miss_latency::.switch_cpus.data  28745002500                       # number of demand (read+write) miss cycles
system.l2.demand_miss_latency::total      28784512500                       # number of demand (read+write) miss cycles
system.l2.overall_miss_latency::.switch_cpus.inst     39510000                       # number of overall miss cycles
system.l2.overall_miss_latency::.switch_cpus.data  28745002500                       # number of overall miss cycles
system.l2.overall_miss_latency::total     28784512500                       # number of overall miss cycles
system.l2.demand_accesses::.switch_cpus.inst          589                       # number of demand (read+write) accesses
system.l2.demand_accesses::.switch_cpus.data       366769                       # number of demand (read+write) accesses
system.l2.demand_accesses::total               367358                       # number of demand (read+write) accesses
system.l2.overall_accesses::.switch_cpus.inst          589                       # number of overall (read+write) accesses
system.l2.overall_accesses::.switch_cpus.data       366769                       # number of overall (read+write) accesses
system.l2.overall_accesses::total              367358                       # number of overall (read+write) accesses
system.l2.demand_miss_rate::.switch_cpus.inst     0.853990                       # miss rate for demand accesses
system.l2.demand_miss_rate::.switch_cpus.data     0.986332                       # miss rate for demand accesses
system.l2.demand_miss_rate::total            0.986120                       # miss rate for demand accesses
system.l2.overall_miss_rate::.switch_cpus.inst     0.853990                       # miss rate for overall accesses
system.l2.overall_miss_rate::.switch_cpus.data     0.986332                       # miss rate for overall accesses
system.l2.overall_miss_rate::total           0.986120                       # miss rate for overall accesses
system.l2.demand_avg_miss_latency::.switch_cpus.inst 78548.707753                       # average overall miss latency
system.l2.demand_avg_miss_latency::.switch_cpus.data 79459.642687                       # average overall miss latency
system.l2.demand_avg_miss_latency::total 79458.377846                       # average overall miss latency
system.l2.overall_avg_miss_latency::.switch_cpus.inst 78548.707753                       # average overall miss latency
system.l2.overall_avg_miss_latency::.switch_cpus.data 79459.642687                       # average overall miss latency
system.l2.overall_avg_miss_latency::total 79458.377846                       # average overall miss latency
system.l2.blocked_cycles::no_mshrs                  0                       # number of cycles access was blocked
system.l2.blocked_cycles::no_targets                0                       # number of cycles access was blocked
system.l2.blocked::no_mshrs                         0                       # number of cycles access was blocked
system.l2.blocked::no_targets                       0                       # number of cycles access was blocked
system.l2.avg_blocked_cycles::no_mshrs            nan                       # average number of cycles each access was blocked
system.l2.avg_blocked_cycles::no_targets          nan                       # average number of cycles each access was blocked
system.l2.writebacks::.writebacks              357511                       # number of writebacks
system.l2.writebacks::total                    357511                       # number of writebacks
system.l2.demand_mshr_misses::.switch_cpus.inst          503                       # number of demand (read+write) MSHR misses
system.l2.demand_mshr_misses::.switch_cpus.data       361756                       # number of demand (read+write) MSHR misses
system.l2.demand_mshr_misses::total            362259                       # number of demand (read+write) MSHR misses
system.l2.overall_mshr_misses::.switch_cpus.inst          503                       # number of overall MSHR misses
system.l2.overall_mshr_misses::.switch_cpus.data       361756                       # number of overall MSHR misses
system.l2.overall_mshr_misses::total           362259                       # number of overall MSHR misses
system.l2.demand_mshr_miss_latency::.switch_cpus.inst     34480000                       # number of demand (read+write) MSHR miss cycles
system.l2.demand_mshr_miss_latency::.switch_cpus.data  25127442500                       # number of demand (read+write) MSHR miss cycles
system.l2.demand_mshr_miss_latency::total  25161922500                       # number of demand (read+write) MSHR miss cycles
system.l2.overall_mshr_miss_latency::.switch_cpus.inst     34480000                       # number of overall MSHR miss cycles
system.l2.overall_mshr_miss_latency::.switch_cpus.data  25127442500                       # number of overall MSHR miss cycles
system.l2.overall_mshr_miss_latency::total  25161922500                       # number of overall MSHR miss cycles
system.l2.demand_mshr_miss_rate::.switch_cpus.inst     0.853990                       # mshr miss rate for demand accesses
system.l2.demand_mshr_miss_rate::.switch_cpus.data     0.986332                       # mshr miss rate for demand accesses
system.l2.demand_mshr_miss_rate::total       0.986120                       # mshr miss rate for demand accesses
system.l2.overall_mshr_miss_rate::.switch_cpus.inst     0.853990                       # mshr miss rate for overall accesses
system.l2.overall_mshr_miss_rate::.switch_cpus.data     0.986332                       # mshr miss rate for overall accesses
system.l2.overall_mshr_miss_rate::total      0.986120                       # mshr miss rate for overall accesses
system.l2.demand_avg_mshr_miss_latency::.switch_cpus.inst 68548.707753                       # average overall mshr miss latency
system.l2.demand_avg_mshr_miss_latency::.switch_cpus.data 69459.642687                       # average overall mshr miss latency
system.l2.demand_avg_mshr_miss_latency::total 69458.377846                       # average overall mshr miss latency
system.l2.overall_avg_mshr_miss_latency::.switch_cpus.inst 68548.707753                       # average overall mshr miss latency
system.l2.overall_avg_mshr_miss_latency::.switch_cpus.data 69459.642687                       # average overall mshr miss latency
system.l2.overall_avg_mshr_miss_latency::total 69458.377846                       # average overall mshr miss latency
system.l2.replacements                         358299                       # number of replacements
system.l2.WritebackDirty_hits::.writebacks       364341                       # number of WritebackDirty hits
system.l2.WritebackDirty_hits::total           364341                       # number of WritebackDirty hits
system.l2.WritebackDirty_accesses::.writebacks       364341                       # number of WritebackDirty accesses(hits+misses)
system.l2.WritebackDirty_accesses::total       364341                       # number of WritebackDirty accesses(hits+misses)
system.l2.WritebackClean_hits::.writebacks          425                       # number of WritebackClean hits
system.l2.WritebackClean_hits::total              425                       # number of WritebackClean hits
system.l2.WritebackClean_accesses::.writebacks          425                       # number of WritebackClean accesses(hits+misses)
system.l2.WritebackClean_accesses::total          425                       # number of WritebackClean accesses(hits+misses)
system.l2.ReadExReq_hits::.switch_cpus.data          762                       # number of ReadExReq hits
system.l2.ReadExReq_hits::total                   762                       # number of ReadExReq hits
system.l2.ReadExReq_misses::.switch_cpus.data       361057                       # number of ReadExReq misses
system.l2.ReadExReq_misses::total              361057                       # number of ReadExReq misses
system.l2.ReadExReq_miss_latency::.switch_cpus.data  28689640500                       # number of ReadExReq miss cycles
system.l2.ReadExReq_miss_latency::total   28689640500                       # number of ReadExReq miss cycles
system.l2.ReadExReq_accesses::.switch_cpus.data       361819                       # number of ReadExReq accesses(hits+misses)
system.l2.ReadExReq_accesses::total            361819                       # number of ReadExReq accesses(hits+misses)
system.l2.ReadExReq_miss_rate::.switch_cpus.data     0.997894                       # miss rate for ReadExReq accesses
system.l2.ReadExReq_miss_rate::total         0.997894                       # miss rate for ReadExReq accesses
[...]
system.switch_cpus.commit.committedInstType_0::FloatSqrt            0      0.00%     83.38% # Class of committed instruction
system.switch_cpus.commit.committedInstType_0::SimdAdd            0      0.00%     83.38% # Class of committed instruction
system.switch_cpus.commit.committedInstType_0::SimdAddAcc            0      0.00%     83.38% # Class of committed instruction
system.switch_cpus.commit.committedInstType_0::SimdAlu           38      0.00%     83.38% # Class of committed instruction
system.switch_cpus.commit.committedInstType_0::SimdCmp            0      0.00%     83.38% # Class of committed instruction
system.switch_cpus.commit.committedInstType_0::SimdCvt           16      0.00%     83.38% # Class of committed instruction
system.switch_cpus.commit.committedInstType_0::SimdMisc          195      0.00%     83.39% # Class of committed instruction
system.switch_cpus.commit.committedInstType_0::SimdMult            0      0.00%     83.39% # Class of committed instruction
system.switch_cpus.commit.committedInstType_0::SimdMultAcc            0      0.00%     83.39% # Class of committed instruction
system.switch_cpus.commit.committedInstType_0::SimdShift            0      0.00%     83.39% # Class of committed instruction
system.switch_cpus.commit.committedInstType_0::SimdShiftAcc            0      0.00%     83.39% # Class of committed instruction
system.switch_cpus.commit.committedInstType_0::SimdDiv            0      0.00%     83.39% # Class of committed instruction
system.switch_cpus.commit.committedInstType_0::SimdSqrt            0      0.00%     83.39% # Class of committed instruction
system.switch_cpus.commit.committedInstType_0::SimdFloatAdd            0      0.00%     83.39% # Class of committed instruction
system.switch_cpus.commit.committedInstType_0::SimdFloatAlu            0      0.00%     83.39% # Class of committed instruction
system.switch_cpus.commit.committedInstType_0::SimdFloatCmp            0      0.00%     83.39% # Class of committed instruction
system.switch_cpus.commit.committedInstType_0::SimdFloatCvt            0      0.00%     83.39% # Class of committed instruction
system.switch_cpus.commit.committedInstType_0::SimdFloatDiv            0      0.00%     83.39% # Class of committed instruction
system.switch_cpus.commit.committedInstType_0::SimdFloatMisc            0      0.00%     83.39% # Class of committed instruction
system.switch_cpus.commit.committedInstType_0::SimdFloatMult            0      0.00%     83.39% # Class of committed instruction
system.switch_cpus.commit.committedInstType_0::SimdFloatMultAcc            0      0.00%     83.39% # Class of committed instruction
system.switch_cpus.commit.committedInstType_0::SimdFloatSqrt            0      0.00%     83.39% # Class of committed instruction
system.switch_cpus.commit.committedInstType_0::SimdReduceAdd            0      0.00%     83.39% # Class of committed instruction
system.switch_cpus.commit.committedInstType_0::SimdReduceAlu            0      0.00%     83.39% # Class of committed instruction
system.switch_cpus.commit.committedInstType_0::SimdReduceCmp            0      0.00%     83.39% # Class of committed instruction
system.switch_cpus.commit.committedInstType_0::SimdFloatReduceAdd            0      0.00%     83.39% # Class of committed instruction
system.switch_cpus.commit.committedInstType_0::SimdFloatReduceCmp            0      0.00%     83.39% # Class of committed instruction
system.switch_cpus.commit.committedInstType_0::SimdAes            0      0.00%     83.39% # Class of committed instruction
system.switch_cpus.commit.committedInstType_0::SimdAesMix            0      0.00%     83.39% # Class of committed instruction
system.switch_cpus.commit.committedInstType_0::SimdSha1Hash            0      0.00%     83.39% # Class of committed instruction
system.switch_cpus.commit.committedInstType_0::SimdSha1Hash2            0      0.00%     83.39% # Class of committed instruction
system.switch_cpus.commit.committedInstType_0::SimdSha256Hash            0      0.00%     83.39% # Class of committed instruction
system.switch_cpus.commit.committedInstType_0::SimdSha256Hash2            0      0.00%     83.39% # Class of committed instruction
system.switch_cpus.commit.committedInstType_0::SimdShaSigma2            0      0.00%     83.39% # Class of committed instruction
system.switch_cpus.commit.committedInstType_0::SimdShaSigma3            0      0.00%     83.39% # Class of committed instruction
system.switch_cpus.commit.committedInstType_0::SimdPredAlu            0      0.00%     83.39% # Class of committed instruction
system.switch_cpus.commit.committedInstType_0::MemRead      1552130      9.94%     93.32% # Class of committed instruction
system.switch_cpus.commit.committedInstType_0::MemWrite       959935      6.14%     99.47% # Class of committed instruction
system.switch_cpus.commit.committedInstType_0::FloatMemRead        41594      0.27%     99.73% # Class of committed instruction
system.switch_cpus.commit.committedInstType_0::FloatMemWrite        41766      0.27%    100.00% # Class of committed instruction
system.switch_cpus.commit.committedInstType_0::IprAccess            0      0.00%    100.00% # Class of committed instruction
system.switch_cpus.commit.committedInstType_0::InstPrefetch            0      0.00%    100.00% # Class of committed instruction
system.switch_cpus.commit.committedInstType_0::total     15621644                       # Class of committed instruction
system.switch_cpus.commit.commitEligibleSamples       879780                       # number cycles where commit BW limit reached
system.switch_cpus.decode.idleCycles          2033391                       # Number of cycles decode is idle
system.switch_cpus.decode.blockedCycles      61639212                       # Number of cycles decode is blocked
system.switch_cpus.decode.runCycles           6878233                       # Number of cycles decode is running
system.switch_cpus.decode.unblockCycles        844479                       # Number of cycles decode is unblocking
system.switch_cpus.decode.squashCycles         264779                       # Number of cycles decode is squashing
system.switch_cpus.decode.branchResolved      3682576                       # Number of times decode resolved a  branch
system.switch_cpus.decode.branchMispred           479                       # Number of times decode detected a branch misprediction
system.switch_cpus.decode.decodedInsts       45519949                       # Number of instructions handled by decode
system.switch_cpus.decode.squashedInsts          2026                       # Number of squashed instructions handled by decode
system.switch_cpus.dtb.rdAccesses             4396674                       # TLB accesses on read requests
system.switch_cpus.dtb.wrAccesses             3653736                       # TLB accesses on write requests
system.switch_cpus.dtb.rdMisses                   208                       # TLB misses on read requests
system.switch_cpus.dtb.wrMisses               2052510                       # TLB misses on write requests
system.switch_cpus.dtb.walker.power_state.pwrStateResidencyTicks::UNDEFINED  36882138500                       # Cumulative time (in ticks) in various power states
system.switch_cpus.fetch.icacheStallCycles      2493207                       # Number of cycles fetch is stalled on an Icache miss
system.switch_cpus.fetch.insts               30763149                       # Number of instructions fetch has processed
system.switch_cpus.fetch.branches             4772281                       # Number of branches that fetch encountered
system.switch_cpus.fetch.predictedBranches      4155523                       # Number of branches that fetch has predicted taken
system.switch_cpus.fetch.cycles              68901015                       # Number of cycles fetch has run and was not squashing or blocked
system.switch_cpus.fetch.squashCycles          530486                       # Number of cycles fetch has spent squashing
system.switch_cpus.fetch.miscStallCycles          132                       # Number of cycles fetch has spent waiting on interrupts,or bad addresses, or out of MSHRs
system.switch_cpus.fetch.pendingTrapStallCycles          472                       # Number of stall cycles due to pending traps
system.switch_cpus.fetch.icacheWaitRetryStallCycles           30                       # Number of stall cycles due to full MSHR
system.switch_cpus.fetch.cacheLines           2353252                       # Number of cache lines fetched
system.switch_cpus.fetch.icacheSquashes         44035                       # Number of outstanding Icache misses that were squashed
system.switch_cpus.fetch.nisnDist::samples     71660099                       # Number of instructions fetched each cycle (Total)
system.switch_cpus.fetch.nisnDist::mean      0.711192                       # Number of instructions fetched each cycle (Total)
system.switch_cpus.fetch.nisnDist::stdev     2.110498                       # Number of instructions fetched each cycle (Total)
system.switch_cpus.fetch.nisnDist::underflows            0      0.00%      0.00% # Number of instructions fetched each cycle (Total)
system.switch_cpus.fetch.nisnDist::0         61759454     86.18%     86.18% # Number of instructions fetched each cycle (Total)
system.switch_cpus.fetch.nisnDist::1          2735754      3.82%     90.00% # Number of instructions fetched each cycle (Total)
system.switch_cpus.fetch.nisnDist::2           330467      0.46%     90.46% # Number of instructions fetched each cycle (Total)
system.switch_cpus.fetch.nisnDist::3           558267      0.78%     91.24% # Number of instructions fetched each cycle (Total)
system.switch_cpus.fetch.nisnDist::4           447267      0.62%     91.87% # Number of instructions fetched each cycle (Total)
system.switch_cpus.fetch.nisnDist::5           602828      0.84%     92.71% # Number of instructions fetched each cycle (Total)
system.switch_cpus.fetch.nisnDist::6           221781      0.31%     93.02% # Number of instructions fetched each cycle (Total)
system.switch_cpus.fetch.nisnDist::7           275549      0.38%     93.40% # Number of instructions fetched each cycle (Total)
system.switch_cpus.fetch.nisnDist::8          4728732      6.60%    100.00% # Number of instructions fetched each cycle (Total)
system.switch_cpus.fetch.nisnDist::overflows            0      0.00%    100.00% # Number of instructions fetched each cycle (Total)
system.switch_cpus.fetch.nisnDist::min_value            0                       # Number of instructions fetched each cycle (Total)
system.switch_cpus.fetch.nisnDist::max_value            8                       # Number of instructions fetched each cycle (Total)
system.switch_cpus.fetch.nisnDist::total     71660099                       # Number of instructions fetched each cycle (Total)
system.switch_cpus.fetch.branchRate          0.066561                       # Number of branch fetches per cycle
system.switch_cpus.fetch.rate                0.429068                       # Number of inst fetches per cycle
system.switch_cpus.itb.rdAccesses                   0                       # TLB accesses on read requests
system.switch_cpus.itb.wrAccesses             2353342                       # TLB accesses on write requests
system.switch_cpus.itb.rdMisses                     0                       # TLB misses on read requests
system.switch_cpus.itb.wrMisses                   130                       # TLB misses on write requests
system.switch_cpus.itb.walker.power_state.pwrStateResidencyTicks::UNDEFINED  36882138500                       # Cumulative time (in ticks) in various power states
system.switch_cpus.lsq0.forwLoads              268382                       # Number of loads that had data forwarded from stores
system.switch_cpus.lsq0.squashedLoads         3106591                       # Number of loads squashed
system.switch_cpus.lsq0.ignoredResponses         2755                       # Number of memory responses ignored because the instruction is squashed
system.switch_cpus.lsq0.memOrderViolation         1436                       # Number of memory ordering violations
system.switch_cpus.lsq0.squashedStores        2999825                       # Number of stores squashed
system.switch_cpus.lsq0.rescheduledLoads            1                       # Number of loads that were rescheduled
system.switch_cpus.lsq0.blockedByCache             30                       # Number of times an access to memory failed due to the cache being blocked
system.switch_cpus.power_state.pwrStateResidencyTicks::OFF  36882138500                       # Cumulative time (in ticks) in various power states
system.switch_cpus.rename.squashCycles         264779                       # Number of cycles rename is squashing
system.switch_cpus.rename.idleCycles          2454211                       # Number of cycles rename is idle
system.switch_cpus.rename.blockCycles        60133553                       # Number of cycles rename is blocking
system.switch_cpus.rename.serializeStallCycles            0                       # count of cycles rename stalledfor serializing inst
system.switch_cpus.rename.runCycles           7289078                       # Number of cycles rename is running
system.switch_cpus.rename.unblockCycles       1518473                       # Number of cycles rename is unblocking
system.switch_cpus.rename.renamedInsts       44384699                       # Number of instructions processed by rename
system.switch_cpus.rename.ROBFullEvents        269267                       # Number of times rename has blocked due to ROB full
system.switch_cpus.rename.IQFullEvents         647854                       # Number of times rename has blocked due to IQ full
system.switch_cpus.rename.LQFullEvents            256                       # Number of times rename has blocked due to LQ full
system.switch_cpus.rename.SQFullEvents         554675                       # Number of times rename has blocked due to SQ full
system.switch_cpus.rename.renamedOperands     58602741                       # Number of destination operands rename has renamed
system.switch_cpus.rename.lookups           107228454                       # Number of register rename lookups that rename has made
system.switch_cpus.rename.intLookups         67836103                       # Number of integer rename lookups
system.switch_cpus.rename.fpLookups            448615                       # Number of floating rename lookups
system.switch_cpus.rename.committedMaps      21895928                       # Number of HB maps that are committed
system.switch_cpus.rename.undoneMaps         36706750                       # Number of HB maps that are undone due to squashing
system.switch_cpus.rename.serializing               0                       # count of serializing insts renamed
system.switch_cpus.rename.tempSerializing            0                       # count of temporary serializing insts renamed
system.switch_cpus.rename.skidInsts           2620899                       # count of insts added to the skid buffer
system.switch_cpus.rob.reads                108776872                       # The number of ROB reads
system.switch_cpus.rob.writes                89222802                       # The number of ROB writes
system.switch_cpus.thread_0.numInsts         10000001                       # Number of Instructions committed
system.switch_cpus.thread_0.numOps           15621644                       # Number of Ops committed
system.switch_cpus.thread_0.numMemRefs              0                       # Number of Memory References
system.tol2bus.trans_dist::ReadResp              5539                       # Transaction distribution
system.tol2bus.trans_dist::WritebackDirty       721852                       # Transaction distribution
system.tol2bus.trans_dist::WritebackClean          426                       # Transaction distribution
system.tol2bus.trans_dist::CleanEvict            3215                       # Transaction distribution
system.tol2bus.trans_dist::ReadExReq           361819                       # Transaction distribution
system.tol2bus.trans_dist::ReadExResp          361819                       # Transaction distribution
system.tol2bus.trans_dist::ReadCleanReq           589                       # Transaction distribution
system.tol2bus.trans_dist::ReadSharedReq         4950                       # Transaction distribution
system.tol2bus.pkt_count_system.cpu.icache.mem_side_port::system.l2.cpu_side_port         1604                       # Packet count per connected requestor and responder (bytes)
system.tol2bus.pkt_count_system.cpu.dcache.mem_side_port::system.l2.cpu_side_port      1100306                       # Packet count per connected requestor and responder (bytes)
system.tol2bus.pkt_count::total               1101910                       # Packet count per connected requestor and responder (bytes)
system.tol2bus.pkt_size_system.cpu.icache.mem_side_port::system.l2.cpu_side_port        64960                       # Cumulative packet size per connected requestor and responder (bytes)
system.tol2bus.pkt_size_system.cpu.dcache.mem_side_port::system.l2.cpu_side_port     46791040                       # Cumulative packet size per connected requestor and responder (bytes)
system.tol2bus.pkt_size::total               46856000                       # Cumulative packet size per connected requestor and responder (bytes)
system.tol2bus.snoops                          358299                       # Total snoops (count)
system.tol2bus.snoopTraffic                  22880704                       # Total snoop traffic (bytes)
system.tol2bus.snoop_fanout::samples           725657                       # Request fanout histogram
system.tol2bus.snoop_fanout::mean            0.000227                       # Request fanout histogram
system.tol2bus.snoop_fanout::stdev           0.015077                       # Request fanout histogram
system.tol2bus.snoop_fanout::underflows             0      0.00%      0.00% # Request fanout histogram
system.tol2bus.snoop_fanout::0                 725492     99.98%     99.98% # Request fanout histogram
system.tol2bus.snoop_fanout::1                    165      0.02%    100.00% # Request fanout histogram
system.tol2bus.snoop_fanout::2                      0      0.00%    100.00% # Request fanout histogram
system.tol2bus.snoop_fanout::3                      0      0.00%    100.00% # Request fanout histogram
system.tol2bus.snoop_fanout::4                      0      0.00%    100.00% # Request fanout histogram
system.tol2bus.snoop_fanout::overflows              0      0.00%    100.00% # Request fanout histogram
system.tol2bus.snoop_fanout::min_value              0                       # Request fanout histogram
system.tol2bus.snoop_fanout::max_value              1                       # Request fanout histogram
system.tol2bus.snoop_fanout::total             725657                       # Request fanout histogram
system.tol2bus.power_state.pwrStateResidencyTicks::UNDEFINED  36882138500                       # Cumulative time (in ticks) in various power states
system.tol2bus.reqLayer0.occupancy          732043000                       # Layer occupancy (ticks)
system.tol2bus.reqLayer0.utilization              2.0                       # Layer utilization (%)
system.tol2bus.respLayer0.occupancy            883500                       # Layer occupancy (ticks)
system.tol2bus.respLayer0.utilization             0.0                       # Layer utilization (%)
system.tol2bus.respLayer1.occupancy         550153500                       # Layer occupancy (ticks)
system.tol2bus.respLayer1.utilization             1.5                       # Layer utilization (%)
system.voltage_domain.voltage                       1                       # Voltage in Volts

---------- End Simulation Statistics   ----------
