
---------- Begin Simulation Statistics ----------
final_tick                                 3894342000                       # Number of ticks from beginning of simulation (restored from checkpoints and never reset)
host_inst_rate                                 235580                       # Simulator instruction rate (inst/s)
host_mem_usage                                8574620                       # Number of bytes of host memory used
host_op_rate                                   429406                       # Simulator op (including micro ops) rate (op/s)
host_seconds                                    46.69                       # Real time elapsed on the host
host_tick_rate                               53809835                       # Simulator tick rate (ticks/s)
sim_freq                                 1000000000000                       # Frequency of simulated ticks
sim_insts                                    11000001                       # Number of instructions simulated
sim_ops                                      20050437                       # Number of ops (including micro ops) simulated
sim_seconds                                  0.002513                       # Number of seconds simulated
sim_ticks                                  2512568000                       # Number of ticks simulated
system.cpu.committedInsts                           0                       # Number of instructions committed
system.cpu.committedOps                             0                       # Number of ops (including micro ops) committed
system.cpu.idle_fraction                            0                       # Percentage of idle cycles
system.cpu.not_idle_fraction                        1                       # Percentage of non-idle cycles
system.cpu.numCycles                                0                       # number of cpu cycles simulated
system.cpu.numWorkItemsCompleted                    0                       # number of work items this cpu completed
system.cpu.numWorkItemsStarted                      0                       # number of work items this cpu started
system.cpu.num_busy_cycles                          0                       # Number of busy cycles
system.cpu.num_conditional_control_insts            0                       # number of instructions that are conditional controls
system.cpu.num_fp_alu_accesses                      0                       # Number of float alu accesses
system.cpu.num_fp_insts                             0                       # number of float instructions
system.cpu.num_fp_register_reads                    0                       # number of times the floating registers were read
system.cpu.num_fp_register_writes                   0                       # number of times the floating registers were written
system.cpu.num_func_calls                           0                       # number of times a function call or return occured
system.cpu.num_idle_cycles                          0                       # Number of idle cycles
system.cpu.num_int_alu_accesses                     0                       # Number of integer alu accesses
system.cpu.num_int_insts                            0                       # number of integer instructions
system.cpu.num_int_register_reads                   0                       # number of times the integer registers were read
system.cpu.num_int_register_writes                  0                       # number of times the integer registers were written
system.cpu.num_load_insts                           0                       # Number of load instructions
system.cpu.num_mem_refs                             0                       # number of memory refs
system.cpu.num_store_insts                          0                       # Number of store instructions
system.cpu.num_vec_alu_accesses                     0                       # Number of vector alu accesses
system.cpu.num_vec_insts                            0                       # number of vector instructions
system.cpu.num_vec_register_reads                   0                       # number of times the vector registers were read
system.cpu.num_vec_register_writes                  0                       # number of times the vector registers were written
system.cpu.op_class::No_OpClass                     0                       # Class of executed instruction
system.cpu.op_class::IntAlu                         0                       # Class of executed instruction
system.cpu.op_class::IntMult                        0                       # Class of executed instruction
system.cpu.op_class::IntDiv                         0                       # Class of executed instruction
system.cpu.op_class::FloatAdd                       0                       # Class of executed instruction
system.cpu.op_class::FloatCmp                       0                       # Class of executed instruction
system.cpu.op_class::FloatCvt                       0                       # Class of executed instruction
system.cpu.op_class::FloatMult                      0                       # Class of executed instruction
system.cpu.op_class::FloatMultAcc                   0                       # Class of executed instruction
system.cpu.op_class::FloatDiv                       0                       # Class of executed instruction
system.cpu.op_class::FloatMisc                      0                       # Class of executed instruction
system.cpu.op_class::FloatSqrt                      0                       # Class of executed instruction
system.cpu.op_class::SimdAdd                        0                       # Class of executed instruction
system.cpu.op_class::SimdAddAcc                     0                       # Class of executed instruction
system.cpu.op_class::SimdAlu                        0                       # Class of executed instruction
system.cpu.op_class::SimdCmp                        0                       # Class of executed instruction
system.cpu.op_class::SimdCvt                        0                       # Class of executed instruction
system.cpu.op_class::SimdMisc                       0                       # Class of executed instruction
system.cpu.op_class::SimdMult                       0                       # Class of executed instruction
system.cpu.op_class::SimdMultAcc                    0                       # Class of executed instruction
system.cpu.op_class::SimdShift                      0                       # Class of executed instruction
system.cpu.op_class::SimdShiftAcc                   0                       # Class of executed instruction
system.cpu.op_class::SimdDiv                        0                       # Class of executed instruction
system.cpu.op_class::SimdSqrt                       0                       # Class of executed instruction
system.cpu.op_class::SimdFloatAdd                   0                       # Class of executed instruction
system.cpu.op_class::SimdFloatAlu                   0                       # Class of executed instruction
system.cpu.op_class::SimdFloatCmp                   0                       # Class of executed instruction
system.cpu.op_class::SimdFloatCvt                   0                       # Class of executed instruction
system.cpu.op_class::SimdFloatDiv                   0                       # Class of executed instruction
system.cpu.op_class::SimdFloatMisc                  0                       # Class of executed instruction
system.cpu.op_class::SimdFloatMult                  0                       # Class of executed instruction
system.cpu.op_class::SimdFloatMultAcc               0                       # Class of executed instruction
system.cpu.op_class::SimdFloatSqrt                  0                       # Class of executed instruction
system.cpu.op_class::SimdReduceAdd                  0                       # Class of executed instruction
system.cpu.op_class::SimdReduceAlu                  0                       # Class of executed instruction
system.cpu.op_class::SimdReduceCmp                  0                       # Class of executed instruction
system.cpu.op_class::SimdFloatReduceAdd             0                       # Class of executed instruction
system.cpu.op_class::SimdFloatReduceCmp             0                       # Class of executed instruction
system.cpu.op_class::SimdAes                        0                       # Class of executed instruction
system.cpu.op_class::SimdAesMix                     0                       # Class of executed instruction
system.cpu.op_class::SimdSha1Hash                   0                       # Class of executed instruction
system.cpu.op_class::SimdSha1Hash2                  0                       # Class of executed instruction
system.cpu.op_class::SimdSha256Hash                 0                       # Class of executed instruction
system.cpu.op_class::SimdSha256Hash2                0                       # Class of executed instruction
system.cpu.op_class::SimdShaSigma2                  0                       # Class of executed instruction
system.cpu.op_class::SimdShaSigma3                  0                       # Class of executed instruction
system.cpu.op_class::SimdPredAlu                    0                       # Class of executed instruction
system.cpu.op_class::MemRead                        0                       # Class of executed instruction
system.cpu.op_class::MemWrite                       0                       # Class of executed instruction
system.cpu.op_class::FloatMemRead                   0                       # Class of executed instruction
system.cpu.op_class::FloatMemWrite                  0                       # Class of executed instruction
system.cpu.op_class::IprAccess                      0                       # Class of executed instruction
system.cpu.op_class::InstPrefetch                   0                       # Class of executed instruction
system.cpu.op_class::total                          0                       # Class of executed instruction
system.cpu.workload.numSyscalls                     3                       # Number of system calls
system.membus.snoop_filter.hit_multi_requests            0                       # Number of requests hitting in the snoop filter with multiple (>1) holders of the requested data.
system.membus.snoop_filter.hit_multi_snoops            0                       # Number of snoops hitting in the snoop filter with multiple (>1) holders of the requested data.
system.membus.snoop_filter.hit_single_requests         6700                       # Number of requests hitting in the snoop filter with a single holder of the requested data.
system.membus.snoop_filter.hit_single_snoops            0                       # Number of snoops hitting in the snoop filter with a single holder of the requested data.
system.membus.snoop_filter.tot_requests         16088                       # Total number of requests made to the snoop filter.
system.membus.snoop_filter.tot_snoops               0                       # Total number of snoops made to the snoop filter.
system.switch_cpus.cc_regfile_reads           3889811                       # number of cc regfile reads
system.switch_cpus.cc_regfile_writes          3888118                       # number of cc regfile writes
system.switch_cpus.committedInsts            10000000                       # Number of Instructions Simulated
system.switch_cpus.committedOps              17613021                       # Number of Ops (including micro ops) Simulated
system.switch_cpus.cpi                       0.502514                       # CPI: Cycles Per Instruction
system.switch_cpus.cpi_total                 0.502514                       # CPI: Total CPI of All Threads
system.switch_cpus.fp_regfile_reads          12986177                       # number of floating regfile reads
system.switch_cpus.fp_regfile_writes          7315550                       # number of floating regfile writes
system.switch_cpus.idleCycles                     302                       # Total number of cycles that the CPU has spent unscheduled due to idling
system.switch_cpus.iew.branchMispredicts          226                       # Number of branch mispredicts detected at execute
system.switch_cpus.iew.exec_branches          1047067                       # Number of branches executed
system.switch_cpus.iew.exec_nop                     0                       # number of nop insts executed
system.switch_cpus.iew.exec_rate             3.510122                       # Inst execution rate
system.switch_cpus.iew.exec_refs              2691544                       # number of memory reference insts executed
system.switch_cpus.iew.exec_stores             449528                       # Number of stores executed
system.switch_cpus.iew.exec_swp                     0                       # number of swp insts executed
system.switch_cpus.iew.iewBlockCycles            4477                       # Number of cycles IEW is blocking
system.switch_cpus.iew.iewDispLoadInsts       2242076                       # Number of dispatched load instructions
system.switch_cpus.iew.iewDispNonSpecInsts            0                       # Number of dispatched non-speculative instructions
system.switch_cpus.iew.iewDispSquashedInsts          113                       # Number of squashed instructions skipped by dispatch
system.switch_cpus.iew.iewDispStoreInsts       449967                       # Number of dispatched store instructions
system.switch_cpus.iew.iewDispatchedInsts     17646002                       # Number of instructions dispatched to IQ
system.switch_cpus.iew.iewExecLoadInsts       2242016                       # Number of load instructions executed
system.switch_cpus.iew.iewExecSquashedInsts          533                       # Number of squashed instructions skipped in execute
system.switch_cpus.iew.iewExecutedInsts      17638842                       # Number of executed instructions
system.switch_cpus.iew.iewIQFullEvents             32                       # Number of times the IQ has become full, causing a stall
system.switch_cpus.iew.iewIdleCycles                0                       # Number of cycles IEW is idle
system.switch_cpus.iew.iewLSQFullEvents           308                       # Number of times the LSQ has become full, causing a stall
system.switch_cpus.iew.iewSquashCycles            340                       # Number of cycles IEW is squashing
system.switch_cpus.iew.iewUnblockCycles           353                       # Number of cycles IEW is unblocking
system.switch_cpus.iew.memOrderViolationEvents            9                       # Number of memory order violations
system.switch_cpus.iew.predictedNotTakenIncorrect          192                       # Number of branches that were predicted not taken incorrectly
system.switch_cpus.iew.predictedTakenIncorrect           34                       # Number of branches that were predicted taken incorrectly
system.switch_cpus.iew.wb_consumers          23521528                       # num instructions consuming a value
system.switch_cpus.iew.wb_count              17638051                       # cumulative count of insts written-back
system.switch_cpus.iew.wb_fanout             0.586095                       # average fanout of values written-back
system.switch_cpus.iew.wb_producers          13785848                       # num instructions producing a value
system.switch_cpus.iew.wb_rate               3.509965                       # insts written-back per cycle
system.switch_cpus.iew.wb_sent               17638316                       # cumulative count of insts sent to commit
system.switch_cpus.int_regfile_reads         16751392                       # number of integer regfile reads
system.switch_cpus.int_regfile_writes         8527302                       # number of integer regfile writes
system.switch_cpus.ipc                       1.989996                       # IPC: Instructions Per Cycle
system.switch_cpus.ipc_total                 1.989996                       # IPC: Total IPC of All Threads
system.switch_cpus.iq.FU_type_0::No_OpClass       299171      1.70%      1.70% # Type of FU issued
system.switch_cpus.iq.FU_type_0::IntAlu       9124631     51.73%     53.42% # Type of FU issued
system.switch_cpus.iq.FU_type_0::IntMult          306      0.00%     53.43% # Type of FU issued
system.switch_cpus.iq.FU_type_0::IntDiv             0      0.00%     53.43% # Type of FU issued
system.switch_cpus.iq.FU_type_0::FloatAdd       448305      2.54%     55.97% # Type of FU issued
system.switch_cpus.iq.FU_type_0::FloatCmp            0      0.00%     55.97% # Type of FU issued
system.switch_cpus.iq.FU_type_0::FloatCvt            0      0.00%     55.97% # Type of FU issued
system.switch_cpus.iq.FU_type_0::FloatMult            0      0.00%     55.97% # Type of FU issued
system.switch_cpus.iq.FU_type_0::FloatMultAcc            0      0.00%     55.97% # Type of FU issued
system.switch_cpus.iq.FU_type_0::FloatDiv            0      0.00%     55.97% # Type of FU issued
system.switch_cpus.iq.FU_type_0::FloatMisc            0      0.00%     55.97% # Type of FU issued
system.switch_cpus.iq.FU_type_0::FloatSqrt            0      0.00%     55.97% # Type of FU issued
system.switch_cpus.iq.FU_type_0::SimdAdd            0      0.00%     55.97% # Type of FU issued
system.switch_cpus.iq.FU_type_0::SimdAddAcc            0      0.00%     55.97% # Type of FU issued
system.switch_cpus.iq.FU_type_0::SimdAlu       896289      5.08%     61.05% # Type of FU issued
system.switch_cpus.iq.FU_type_0::SimdCmp            0      0.00%     61.05% # Type of FU issued
system.switch_cpus.iq.FU_type_0::SimdCvt            0      0.00%     61.05% # Type of FU issued
system.switch_cpus.iq.FU_type_0::SimdMisc       895793      5.08%     66.13% # Type of FU issued
system.switch_cpus.iq.FU_type_0::SimdMult            0      0.00%     66.13% # Type of FU issued
system.switch_cpus.iq.FU_type_0::SimdMultAcc            0      0.00%     66.13% # Type of FU issued
system.switch_cpus.iq.FU_type_0::SimdShift            0      0.00%     66.13% # Type of FU issued
system.switch_cpus.iq.FU_type_0::SimdShiftAcc            0      0.00%     66.13% # Type of FU issued
system.switch_cpus.iq.FU_type_0::SimdDiv            0      0.00%     66.13% # Type of FU issued
system.switch_cpus.iq.FU_type_0::SimdSqrt            0      0.00%     66.13% # Type of FU issued
system.switch_cpus.iq.FU_type_0::SimdFloatAdd      1492136      8.46%     74.59% # Type of FU issued
system.switch_cpus.iq.FU_type_0::SimdFloatAlu            0      0.00%     74.59% # Type of FU issued
system.switch_cpus.iq.FU_type_0::SimdFloatCmp            0      0.00%     74.59% # Type of FU issued
system.switch_cpus.iq.FU_type_0::SimdFloatCvt       746251      4.23%     78.82% # Type of FU issued
system.switch_cpus.iq.FU_type_0::SimdFloatDiv            0      0.00%     78.82% # Type of FU issued
system.switch_cpus.iq.FU_type_0::SimdFloatMisc            0      0.00%     78.82% # Type of FU issued
system.switch_cpus.iq.FU_type_0::SimdFloatMult      1044863      5.92%     84.74% # Type of FU issued
system.switch_cpus.iq.FU_type_0::SimdFloatMultAcc            0      0.00%     84.74% # Type of FU issued
system.switch_cpus.iq.FU_type_0::SimdFloatSqrt            0      0.00%     84.74% # Type of FU issued
system.switch_cpus.iq.FU_type_0::SimdReduceAdd            0      0.00%     84.74% # Type of FU issued
system.switch_cpus.iq.FU_type_0::SimdReduceAlu            0      0.00%     84.74% # Type of FU issued
system.switch_cpus.iq.FU_type_0::SimdReduceCmp            0      0.00%     84.74% # Type of FU issued
system.switch_cpus.iq.FU_type_0::SimdFloatReduceAdd            0      0.00%     84.74% # Type of FU issued
system.switch_cpus.iq.FU_type_0::SimdFloatReduceCmp            0      0.00%     84.74% # Type of FU issued
system.switch_cpus.iq.FU_type_0::SimdAes            0      0.00%     84.74% # Type of FU issued
system.switch_cpus.iq.FU_type_0::SimdAesMix            0      0.00%     84.74% # Type of FU issued
system.switch_cpus.iq.FU_type_0::SimdSha1Hash            0      0.00%     84.74% # Type of FU issued
system.switch_cpus.iq.FU_type_0::SimdSha1Hash2            0      0.00%     84.74% # Type of FU issued
system.switch_cpus.iq.FU_type_0::SimdSha256Hash            0      0.00%     84.74% # Type of FU issued
system.switch_cpus.iq.FU_type_0::SimdSha256Hash2            0      0.00%     84.74% # Type of FU issued
system.switch_cpus.iq.FU_type_0::SimdShaSigma2            0      0.00%     84.74% # Type of FU issued
system.switch_cpus.iq.FU_type_0::SimdShaSigma3            0      0.00%     84.74% # Type of FU issued
system.switch_cpus.iq.FU_type_0::SimdPredAlu            0      0.00%     84.74% # Type of FU issued
system.switch_cpus.iq.FU_type_0::MemRead       599238      3.40%     88.14% # Type of FU issued
system.switch_cpus.iq.FU_type_0::MemWrite       449469      2.55%     90.69% # Type of FU issued
system.switch_cpus.iq.FU_type_0::FloatMemRead      1642838      9.31%    100.00% # Type of FU issued
system.switch_cpus.iq.FU_type_0::FloatMemWrite           87      0.00%    100.00% # Type of FU issued
system.switch_cpus.iq.FU_type_0::IprAccess            0      0.00%    100.00% # Type of FU issued
system.switch_cpus.iq.FU_type_0::InstPrefetch            0      0.00%    100.00% # Type of FU issued
system.switch_cpus.iq.FU_type_0::total       17639377                       # Type of FU issued
system.switch_cpus.iq.fp_alu_accesses         7763818                       # Number of floating point alu accesses
system.switch_cpus.iq.fp_inst_queue_reads     15527615                       # Number of floating instruction queue reads
system.switch_cpus.iq.fp_inst_queue_wakeup_accesses      7763467                       # Number of floating instruction queue wakeup accesses
system.switch_cpus.iq.fp_inst_queue_writes      7778070                       # Number of floating instruction queue writes
system.switch_cpus.iq.fu_busy_cnt              148641                       # FU busy when requested
system.switch_cpus.iq.fu_busy_rate           0.008427                       # FU busy rate (busy events/executed inst)
system.switch_cpus.iq.fu_full::No_OpClass            0      0.00%      0.00% # attempts to use FU when none available
system.switch_cpus.iq.fu_full::IntAlu          148600     99.97%     99.97% # attempts to use FU when none available
system.switch_cpus.iq.fu_full::IntMult              0      0.00%     99.97% # attempts to use FU when none available
system.switch_cpus.iq.fu_full::IntDiv               0      0.00%     99.97% # attempts to use FU when none available
system.switch_cpus.iq.fu_full::FloatAdd             0      0.00%     99.97% # attempts to use FU when none available
system.switch_cpus.iq.fu_full::FloatCmp             0      0.00%     99.97% # attempts to use FU when none available
system.switch_cpus.iq.fu_full::FloatCvt             0      0.00%     99.97% # attempts to use FU when none available
system.switch_cpus.iq.fu_full::FloatMult            0      0.00%     99.97% # attempts to use FU when none available
system.switch_cpus.iq.fu_full::FloatMultAcc            0      0.00%     99.97% # attempts to use FU when none available
system.switch_cpus.iq.fu_full::FloatDiv             0      0.00%     99.97% # attempts to use FU when none available
system.switch_cpus.iq.fu_full::FloatMisc            0      0.00%     99.97% # attempts to use FU when none available
system.switch_cpus.iq.fu_full::FloatSqrt            0      0.00%     99.97% # attempts to use FU when none available
system.switch_cpus.iq.fu_full::SimdAdd              0      0.00%     99.97% # attempts to use FU when none available
system.switch_cpus.iq.fu_full::SimdAddAcc            0      0.00%     99.97% # attempts to use FU when none available
system.switch_cpus.iq.fu_full::SimdAlu              0      0.00%     99.97% # attempts to use FU when none available
system.switch_cpus.iq.fu_full::SimdCmp              0      0.00%     99.97% # attempts to use FU when none available
system.switch_cpus.iq.fu_full::SimdCvt              0      0.00%     99.97% # attempts to use FU when none available
system.switch_cpus.iq.fu_full::SimdMisc             0      0.00%     99.97% # attempts to use FU when none available
system.switch_cpus.iq.fu_full::SimdMult             0      0.00%     99.97% # attempts to use FU when none available
system.switch_cpus.iq.fu_full::SimdMultAcc            0      0.00%     99.97% # attempts to use FU when none available
system.switch_cpus.iq.fu_full::SimdShift            0      0.00%     99.97% # attempts to use FU when none available
system.switch_cpus.iq.fu_full::SimdShiftAcc            0      0.00%     99.97% # attempts to use FU when none available
system.switch_cpus.iq.fu_full::SimdDiv              0      0.00%     99.97% # attempts to use FU when none available
system.switch_cpus.iq.fu_full::SimdSqrt             0      0.00%     99.97% # attempts to use FU when none available
system.switch_cpus.iq.fu_full::SimdFloatAdd            0      0.00%     99.97% # attempts to use FU when none available
system.switch_cpus.iq.fu_full::SimdFloatAlu            0      0.00%     99.97% # attempts to use FU when none available
system.switch_cpus.iq.fu_full::SimdFloatCmp            0      0.00%     99.97% # attempts to use FU when none available
system.switch_cpus.iq.fu_full::SimdFloatCvt            0      0.00%     99.97% # attempts to use FU when none available
system.switch_cpus.iq.fu_full::SimdFloatDiv            0      0.00%     99.97% # attempts to use FU when none available
system.switch_cpus.iq.fu_full::SimdFloatMisc            0      0.00%     99.97% # attempts to use FU when none available
system.switch_cpus.iq.fu_full::SimdFloatMult            0      0.00%     99.97% # attempts to use FU when none available
system.switch_cpus.iq.fu_full::SimdFloatMultAcc            0      0.00%     99.97% # attempts to use FU when none available
system.switch_cpus.iq.fu_full::SimdFloatSqrt            0      0.00%     99.97% # attempts to use FU when none available
system.switch_cpus.iq.fu_full::SimdReduceAdd            0      0.00%     99.97% # attempts to use FU when none available
system.switch_cpus.iq.fu_full::SimdReduceAlu            0      0.00%     99.97% # attempts to use FU when none available
system.switch_cpus.iq.fu_full::SimdReduceCmp            0      0.00%     99.97% # attempts to use FU when none available
system.switch_cpus.iq.fu_full::SimdFloatReduceAdd            0      0.00%     99.97% # attempts to use FU when none available
system.switch_cpus.iq.fu_full::SimdFloatReduceCmp            0      0.00%     99.97% # attempts to use FU when none available
system.switch_cpus.iq.fu_full::SimdAes              0      0.00%     99.97% # attempts to use FU when none available
system.switch_cpus.iq.fu_full::SimdAesMix            0      0.00%     99.97% # attempts to use FU when none available
system.switch_cpus.iq.fu_full::SimdSha1Hash            0      0.00%     99.97% # attempts to use FU when none available
system.switch_cpus.iq.fu_full::SimdSha1Hash2            0      0.00%     99.97% # attempts to use FU when none available
system.switch_cpus.iq.fu_full::SimdSha256Hash            0      0.00%     99.97% # attempts to use FU when none available
system.switch_cpus.iq.fu_full::SimdSha256Hash2            0      0.00%     99.97% # attempts to use FU when none available
system.switch_cpus.iq.fu_full::SimdShaSigma2            0      0.00%     99.97% # attempts to use FU when none available
system.switch_cpus.iq.fu_full::SimdShaSigma3            0      0.00%     99.97% # attempts to use FU when none available
system.switch_cpus.iq.fu_full::SimdPredAlu            0      0.00%     99.97% # attempts to use FU when none available
system.switch_cpus.iq.fu_full::MemRead             19      0.01%     99.99% # attempts to use FU when none available
system.switch_cpus.iq.fu_full::MemWrite             3      0.00%     99.99% # attempts to use FU when none available
system.switch_cpus.iq.fu_full::FloatMemRead            1      0.00%     99.99% # attempts to use FU when none available
system.switch_cpus.iq.fu_full::FloatMemWrite           18      0.01%    100.00% # attempts to use FU when none available
system.switch_cpus.iq.fu_full::IprAccess            0      0.00%    100.00% # attempts to use FU when none available
system.switch_cpus.iq.fu_full::InstPrefetch            0      0.00%    100.00% # attempts to use FU when none available
system.switch_cpus.iq.int_alu_accesses        9725029                       # Number of integer alu accesses
system.switch_cpus.iq.int_inst_queue_reads     24924631                       # Number of integer instruction queue reads
system.switch_cpus.iq.int_inst_queue_wakeup_accesses      9874584                       # Number of integer instruction queue wakeup accesses
system.switch_cpus.iq.int_inst_queue_writes      9900802                       # Number of integer instruction queue writes
system.switch_cpus.iq.iqInstsAdded           17646002                       # Number of instructions added to the IQ (excludes non-spec)
system.switch_cpus.iq.iqInstsIssued          17639377                       # Number of instructions issued
system.switch_cpus.iq.iqSquashedInstsExamined        32861                       # Number of squashed instructions iterated over during squash; mainly for profiling
system.switch_cpus.iq.iqSquashedInstsIssued           19                       # Number of squashed instructions issued
system.switch_cpus.iq.iqSquashedOperandsExamined        22849                       # Number of squashed operands that are examined and possibly removed from graph
system.switch_cpus.iq.issued_per_cycle::samples      5024834                       # Number of insts issued each cycle
system.switch_cpus.iq.issued_per_cycle::mean     3.510440                       # Number of insts issued each cycle
system.switch_cpus.iq.issued_per_cycle::stdev     1.969337                       # Number of insts issued each cycle
system.switch_cpus.iq.issued_per_cycle::underflows            0      0.00%      0.00% # Number of insts issued each cycle
system.switch_cpus.iq.issued_per_cycle::0       129052      2.57%      2.57% # Number of insts issued each cycle
system.switch_cpus.iq.issued_per_cycle::1       676659     13.47%     16.03% # Number of insts issued each cycle
system.switch_cpus.iq.issued_per_cycle::2      1041864     20.73%     36.77% # Number of insts issued each cycle
system.switch_cpus.iq.issued_per_cycle::3       858690     17.09%     53.86% # Number of insts issued each cycle
system.switch_cpus.iq.issued_per_cycle::4       858425     17.08%     70.94% # Number of insts issued each cycle
system.switch_cpus.iq.issued_per_cycle::5       452873      9.01%     79.95% # Number of insts issued each cycle
system.switch_cpus.iq.issued_per_cycle::6       557561     11.10%     91.05% # Number of insts issued each cycle
system.switch_cpus.iq.issued_per_cycle::7       338191      6.73%     97.78% # Number of insts issued each cycle
system.switch_cpus.iq.issued_per_cycle::8       111519      2.22%    100.00% # Number of insts issued each cycle
system.switch_cpus.iq.issued_per_cycle::overflows            0      0.00%    100.00% # Number of insts issued each cycle
system.switch_cpus.iq.issued_per_cycle::min_value            0                       # Number of insts issued each cycle
system.switch_cpus.iq.issued_per_cycle::max_value            8                       # Number of insts issued each cycle
system.switch_cpus.iq.issued_per_cycle::total      5024834                       # Number of insts issued each cycle
system.switch_cpus.iq.rate                   3.510229                       # Inst issue rate
system.switch_cpus.iq.vec_alu_accesses              0                       # Number of vector alu accesses
system.switch_cpus.iq.vec_inst_queue_reads            0                       # Number of vector instruction queue reads
system.switch_cpus.iq.vec_inst_queue_wakeup_accesses            0                       # Number of vector instruction queue wakeup accesses
system.switch_cpus.iq.vec_inst_queue_writes            0                       # Number of vector instruction queue writes
system.switch_cpus.memDep0.conflictingLoads           21                       # Number of conflicting loads.
system.switch_cpus.memDep0.conflictingStores           25                       # Number of conflicting stores.
system.switch_cpus.memDep0.insertedLoads      2242076                       # Number of loads inserted to the mem dependence unit.
system.switch_cpus.memDep0.insertedStores       449967                       # Number of stores inserted to the mem dependence unit.
system.switch_cpus.misc_regfile_reads         5981373                       # number of misc regfile reads
system.switch_cpus.numCycles                  5025136                       # number of cpu cycles simulated
system.switch_cpus.numWorkItemsCompleted            0                       # number of work items this cpu completed
system.switch_cpus.numWorkItemsStarted              0                       # number of work items this cpu started
system.switch_cpus.timesIdled                       5                       # Number of times that the entire CPU went into an idle state and unscheduled itself
system.tol2bus.snoop_filter.hit_multi_requests            2                       # Number of requests hitting in the snoop filter with multiple (>1) holders of the requested data.
system.tol2bus.snoop_filter.hit_multi_snoops            0                       # Number of snoops hitting in the snoop filter with multiple (>1) holders of the requested data.
system.tol2bus.snoop_filter.hit_single_requests         9666                       # Number of requests hitting in the snoop filter with a single holder of the requested data.
system.tol2bus.snoop_filter.hit_single_snoops          980                       # Number of snoops hitting in the snoop filter with a single holder of the requested data.
system.tol2bus.snoop_filter.tot_requests        19335                       # Total number of requests made to the snoop filter.
system.tol2bus.snoop_filter.tot_snoops            980                       # Total number of snoops made to the snoop filter.
system.clk_domain.clock                          1000                       # Clock period in ticks
system.cpu.branchPred.lookups                       0                       # Number of BP lookups
system.cpu.branchPred.condPredicted                 0                       # Number of conditional branches predicted
system.cpu.branchPred.condIncorrect                 0                       # Number of conditional branches incorrect
system.cpu.branchPred.BTBLookups                    0                       # Number of BTB lookups
system.cpu.branchPred.BTBHits                       0                       # Number of BTB hits
system.cpu.branchPred.BTBHitPct                   nan                       # BTB Hit Percentage
system.cpu.branchPred.RASUsed                       0                       # Number of times the RAS was used to get a target.
system.cpu.branchPred.RASIncorrect                  0                       # Number of incorrect RAS predictions.
system.cpu.branchPred.indirectLookups               0                       # Number of indirect predictor lookups.
system.cpu.branchPred.indirectHits                  0                       # Number of indirect target hits.
system.cpu.branchPred.indirectMisses                0                       # Number of indirect misses.
system.cpu.branchPred.indirectMispredicted            0                       # Number of mispredicted indirect branches.
system.cpu.dcache.demand_hits::.switch_cpus.data      2531136                       # number of demand (read+write) hits
system.cpu.dcache.demand_hits::total          2531136                       # number of demand (read+write) hits
system.cpu.dcache.overall_hits::.switch_cpus.data      2531136                       # number of overall hits
system.cpu.dcache.overall_hits::total         2531136                       # number of overall hits
system.cpu.dcache.demand_misses::.switch_cpus.data         9765                       # number of demand (read+write) misses
system.cpu.dcache.demand_misses::total           9765                       # number of demand (read+write) misses
system.cpu.dcache.overall_misses::.switch_cpus.data         9765                       # number of overall misses
system.cpu.dcache.overall_misses::total          9765                       # number of overall misses
system.cpu.dcache.demand_miss_latency::.switch_cpus.data    755511497                       # number of demand (read+write) miss cycles
system.cpu.dcache.demand_miss_latency::total    755511497                       # number of demand (read+write) miss cycles
system.cpu.dcache.overall_miss_latency::.switch_cpus.data    755511497                       # number of overall miss cycles
system.cpu.dcache.overall_miss_latency::total    755511497                       # number of overall miss cycles
system.cpu.dcache.demand_accesses::.switch_cpus.data      2540901                       # number of demand (read+write) accesses
system.cpu.dcache.demand_accesses::total      2540901                       # number of demand (read+write) accesses
system.cpu.dcache.overall_accesses::.switch_cpus.data      2540901                       # number of overall (read+write) accesses
system.cpu.dcache.overall_accesses::total      2540901                       # number of overall (read+write) accesses
system.cpu.dcache.demand_miss_rate::.switch_cpus.data     0.003843                       # miss rate for demand accesses
system.cpu.dcache.demand_miss_rate::total     0.003843                       # miss rate for demand accesses
system.cpu.dcache.overall_miss_rate::.switch_cpus.data     0.003843                       # miss rate for overall accesses
system.cpu.dcache.overall_miss_rate::total     0.003843                       # miss rate for overall accesses
system.cpu.dcache.demand_avg_miss_latency::.switch_cpus.data 77369.328930                       # average overall miss latency
system.cpu.dcache.demand_avg_miss_latency::total 77369.328930                       # average overall miss latency
system.cpu.dcache.overall_avg_miss_latency::.switch_cpus.data 77369.328930                       # average overall miss latency
system.cpu.dcache.overall_avg_miss_latency::total 77369.328930                       # average overall miss latency
system.cpu.dcache.blocked_cycles::no_mshrs          646                       # number of cycles access was blocked
system.cpu.dcache.blocked_cycles::no_targets            0                       # number of cycles access was blocked
system.cpu.dcache.blocked::no_mshrs                98                       # number of cycles access was blocked
system.cpu.dcache.blocked::no_targets               0                       # number of cycles access was blocked
system.cpu.dcache.avg_blocked_cycles::no_mshrs     6.591837                       # average number of cycles each access was blocked
system.cpu.dcache.avg_blocked_cycles::no_targets          nan                       # average number of cycles each access was blocked
system.cpu.dcache.writebacks::.writebacks         9560                       # number of writebacks
system.cpu.dcache.writebacks::total              9560                       # number of writebacks
system.cpu.dcache.demand_mshr_hits::.switch_cpus.data          126                       # number of demand (read+write) MSHR hits
system.cpu.dcache.demand_mshr_hits::total          126                       # number of demand (read+write) MSHR hits
system.cpu.dcache.overall_mshr_hits::.switch_cpus.data          126                       # number of overall MSHR hits
system.cpu.dcache.overall_mshr_hits::total          126                       # number of overall MSHR hits
system.cpu.dcache.demand_mshr_misses::.switch_cpus.data         9639                       # number of demand (read+write) MSHR misses
system.cpu.dcache.demand_mshr_misses::total         9639                       # number of demand (read+write) MSHR misses
system.cpu.dcache.overall_mshr_misses::.switch_cpus.data         9639                       # number of overall MSHR misses
system.cpu.dcache.overall_mshr_misses::total         9639                       # number of overall MSHR misses
system.cpu.dcache.demand_mshr_miss_latency::.switch_cpus.data    744367997                       # number of demand (read+write) MSHR miss cycles
system.cpu.dcache.demand_mshr_miss_latency::total    744367997                       # number of demand (read+write) MSHR miss cycles
system.cpu.dcache.overall_mshr_miss_latency::.switch_cpus.data    744367997                       # number of overall MSHR miss cycles
system.cpu.dcache.overall_mshr_miss_latency::total    744367997                       # number of overall MSHR miss cycles
system.cpu.dcache.demand_mshr_miss_rate::.switch_cpus.data     0.003794                       # mshr miss rate for demand accesses
system.cpu.dcache.demand_mshr_miss_rate::total     0.003794                       # mshr miss rate for demand accesses
system.cpu.dcache.overall_mshr_miss_rate::.switch_cpus.data     0.003794                       # mshr miss rate for overall accesses
system.cpu.dcache.overall_mshr_miss_rate::total     0.003794                       # mshr miss rate for overall accesses
system.cpu.dcache.demand_avg_mshr_miss_latency::.switch_cpus.data 77224.608051                       # average overall mshr miss latency
system.cpu.dcache.demand_avg_mshr_miss_latency::total 77224.608051                       # average overall mshr miss latency
system.cpu.dcache.overall_avg_mshr_miss_latency::.switch_cpus.data 77224.608051                       # average overall mshr miss latency
system.cpu.dcache.overall_avg_mshr_miss_latency::total 77224.608051                       # average overall mshr miss latency
system.cpu.dcache.replacements                   9638                       # number of replacements
system.cpu.dcache.ReadReq_hits::.switch_cpus.data      2091798                       # number of ReadReq hits
system.cpu.dcache.ReadReq_hits::total         2091798                       # number of ReadReq hits
system.cpu.dcache.ReadReq_misses::.switch_cpus.data          348                       # number of ReadReq misses
system.cpu.dcache.ReadReq_misses::total           348                       # number of ReadReq misses
system.cpu.dcache.ReadReq_miss_latency::.switch_cpus.data      4785500                       # number of ReadReq miss cycles
system.cpu.dcache.ReadReq_miss_latency::total      4785500                       # number of ReadReq miss cycles
system.cpu.dcache.ReadReq_accesses::.switch_cpus.data      2092146                       # number of ReadReq accesses(hits+misses)
system.cpu.dcache.ReadReq_accesses::total      2092146                       # number of ReadReq accesses(hits+misses)
system.cpu.dcache.ReadReq_miss_rate::.switch_cpus.data     0.000166                       # miss rate for ReadReq accesses
system.cpu.dcache.ReadReq_miss_rate::total     0.000166                       # miss rate for ReadReq accesses
system.cpu.dcache.ReadReq_avg_miss_latency::.switch_cpus.data 13751.436782                       # average ReadReq miss latency
system.cpu.dcache.ReadReq_avg_miss_latency::total 13751.436782                       # average ReadReq miss latency
system.cpu.dcache.ReadReq_mshr_hits::.switch_cpus.data          126                       # number of ReadReq MSHR hits
system.cpu.dcache.ReadReq_mshr_hits::total          126                       # number of ReadReq MSHR hits
system.cpu.dcache.ReadReq_mshr_misses::.switch_cpus.data          222                       # number of ReadReq MSHR misses
system.cpu.dcache.ReadReq_mshr_misses::total          222                       # number of ReadReq MSHR misses
system.cpu.dcache.ReadReq_mshr_miss_latency::.switch_cpus.data      3058000                       # number of ReadReq MSHR miss cycles
system.cpu.dcache.ReadReq_mshr_miss_latency::total      3058000                       # number of ReadReq MSHR miss cycles
system.cpu.dcache.ReadReq_mshr_miss_rate::.switch_cpus.data     0.000106                       # mshr miss rate for ReadReq accesses
system.cpu.dcache.ReadReq_mshr_miss_rate::total     0.000106                       # mshr miss rate for ReadReq accesses
system.cpu.dcache.ReadReq_avg_mshr_miss_latency::.switch_cpus.data 13774.774775                       # average ReadReq mshr miss latency
system.cpu.dcache.ReadReq_avg_mshr_miss_latency::total 13774.774775                       # average ReadReq mshr miss latency
system.cpu.dcache.WriteReq_hits::.switch_cpus.data       439338                       # number of WriteReq hits
system.cpu.dcache.WriteReq_hits::total         439338                       # number of WriteReq hits
system.cpu.dcache.WriteReq_misses::.switch_cpus.data         9417                       # number of WriteReq misses
system.cpu.dcache.WriteReq_misses::total         9417                       # number of WriteReq misses
system.cpu.dcache.WriteReq_miss_latency::.switch_cpus.data    750725997                       # number of WriteReq miss cycles
system.cpu.dcache.WriteReq_miss_latency::total    750725997                       # number of WriteReq miss cycles
system.cpu.dcache.WriteReq_accesses::.switch_cpus.data       448755                       # number of WriteReq accesses(hits+misses)
system.cpu.dcache.WriteReq_accesses::total       448755                       # number of WriteReq accesses(hits+misses)
system.cpu.dcache.WriteReq_miss_rate::.switch_cpus.data     0.020985                       # miss rate for WriteReq accesses
system.cpu.dcache.WriteReq_miss_rate::total     0.020985                       # miss rate for WriteReq accesses
system.cpu.dcache.WriteReq_avg_miss_latency::.switch_cpus.data 79720.292768                       # average WriteReq miss latency
system.cpu.dcache.WriteReq_avg_miss_latency::total 79720.292768                       # average WriteReq miss latency
system.cpu.dcache.WriteReq_mshr_misses::.switch_cpus.data         9417                       # number of WriteReq MSHR misses
system.cpu.dcache.WriteReq_mshr_misses::total         9417                       # number of WriteReq MSHR misses
system.cpu.dcache.WriteReq_mshr_miss_latency::.switch_cpus.data    741309997                       # number of WriteReq MSHR miss cycles
system.cpu.dcache.WriteReq_mshr_miss_latency::total    741309997                       # number of WriteReq MSHR miss cycles
system.cpu.dcache.WriteReq_mshr_miss_rate::.switch_cpus.data     0.020985                       # mshr miss rate for WriteReq accesses
system.cpu.dcache.WriteReq_mshr_miss_rate::total     0.020985                       # mshr miss rate for WriteReq accesses
system.cpu.dcache.WriteReq_avg_mshr_miss_latency::.switch_cpus.data 78720.398959                       # average WriteReq mshr miss latency
system.cpu.dcache.WriteReq_avg_mshr_miss_latency::total 78720.398959                       # average WriteReq mshr miss latency
system.cpu.dcache.power_state.pwrStateResidencyTicks::UNDEFINED   3894342000                       # Cumulative time (in ticks) in various power states
system.cpu.dcache.tags.tagsinuse                 1024                       # Cycle average of tags in use
system.cpu.dcache.tags.total_refs             2717007                       # Total number of references to valid blocks.
system.cpu.dcache.tags.sampled_refs             10662                       # Sample count of references to valid blocks.
system.cpu.dcache.tags.avg_refs            254.830895                       # Average number of references to valid blocks.
system.cpu.dcache.tags.warmup_cycle                 0                       # Cycle when the warmup percentage was hit.
system.cpu.dcache.tags.occ_blocks::.cpu.data    65.525243                       # Average occupied blocks per requestor
system.cpu.dcache.tags.occ_blocks::.switch_cpus.data   958.474757                       # Average occupied blocks per requestor
system.cpu.dcache.tags.occ_percent::.cpu.data     0.063989                       # Average percentage of cache occupancy
system.cpu.dcache.tags.occ_percent::.switch_cpus.data     0.936011                       # Average percentage of cache occupancy
system.cpu.dcache.tags.occ_percent::total            1                       # Average percentage of cache occupancy
system.cpu.dcache.tags.occ_task_id_blocks::1024         1024                       # Occupied blocks per task id
system.cpu.dcache.tags.age_task_id_blocks_1024::0           37                       # Occupied blocks per task id
system.cpu.dcache.tags.age_task_id_blocks_1024::1          367                       # Occupied blocks per task id
system.cpu.dcache.tags.age_task_id_blocks_1024::2          610                       # Occupied blocks per task id
system.cpu.dcache.tags.age_task_id_blocks_1024::3           10                       # Occupied blocks per task id
system.cpu.dcache.tags.occ_task_id_percent::1024            1                       # Percentage of cache occupancy per task id
system.cpu.dcache.tags.tag_accesses           5091440                       # Number of tag accesses
system.cpu.dcache.tags.data_accesses          5091440                       # Number of data accesses
system.cpu.dcache.tags.power_state.pwrStateResidencyTicks::UNDEFINED   3894342000                       # Cumulative time (in ticks) in various power states
system.cpu.dtb.rdAccesses                           0                       # TLB accesses on read requests
system.cpu.dtb.wrAccesses                           0                       # TLB accesses on write requests
system.cpu.dtb.rdMisses                             0                       # TLB misses on read requests
system.cpu.dtb.wrMisses                             0                       # TLB misses on write requests
system.cpu.dtb.walker.power_state.pwrStateResidencyTicks::UNDEFINED   3894342000                       # Cumulative time (in ticks) in various power states
system.cpu.dtb_walker_cache.blocked_cycles::no_mshrs            0                       # number of cycles access was blocked
system.cpu.dtb_walker_cache.blocked_cycles::no_targets            0                       # number of cycles access was blocked
system.cpu.dtb_walker_cache.blocked::no_mshrs            0                       # number of cycles access was blocked
system.cpu.dtb_walker_cache.blocked::no_targets            0                       # number of cycles access was blocked
system.cpu.dtb_walker_cache.avg_blocked_cycles::no_mshrs          nan                       # average number of cycles each access was blocked
system.cpu.dtb_walker_cache.avg_blocked_cycles::no_targets          nan                       # average number of cycles each access was blocked
system.cpu.dtb_walker_cache.replacements            0                       # number of replacements
system.cpu.dtb_walker_cache.power_state.pwrStateResidencyTicks::UNDEFINED   3894342000                       # Cumulative time (in ticks) in various power states
system.cpu.dtb_walker_cache.tags.tagsinuse            0                       # Cycle average of tags in use
system.cpu.dtb_walker_cache.tags.total_refs            0                       # Total number of references to valid blocks.
system.cpu.dtb_walker_cache.tags.sampled_refs            0                       # Sample count of references to valid blocks.
system.cpu.dtb_walker_cache.tags.avg_refs          nan                       # Average number of references to valid blocks.
system.cpu.dtb_walker_cache.tags.warmup_cycle            0                       # Cycle when the warmup percentage was hit.
system.cpu.dtb_walker_cache.tags.tag_accesses            0                       # Number of tag accesses
system.cpu.dtb_walker_cache.tags.data_accesses            0                       # Number of data accesses
system.cpu.dtb_walker_cache.tags.power_state.pwrStateResidencyTicks::UNDEFINED   3894342000                       # Cumulative time (in ticks) in various power states
system.cpu.icache.demand_hits::.switch_cpus.inst      1197486                       # number of demand (read+write) hits
system.cpu.icache.demand_hits::total          1197486                       # number of demand (read+write) hits
system.cpu.icache.overall_hits::.switch_cpus.inst      1197486                       # number of overall hits
system.cpu.icache.overall_hits::total         1197486                       # number of overall hits
system.cpu.icache.demand_misses::.switch_cpus.inst           44                       # number of demand (read+write) misses
system.cpu.icache.demand_misses::total             44                       # number of demand (read+write) misses
system.cpu.icache.overall_misses::.switch_cpus.inst           44                       # number of overall misses
system.cpu.icache.overall_misses::total            44                       # number of overall misses
system.cpu.icache.demand_miss_latency::.switch_cpus.inst      2921500                       # number of demand (read+write) miss cycles
system.cpu.icache.demand_miss_latency::total      2921500                       # number of demand (read+write) miss cycles
system.cpu.icache.overall_miss_latency::.switch_cpus.inst      2921500                       # number of overall miss cycles
system.cpu.icache.overall_miss_latency::total      2921500                       # number of overall miss cycles
system.cpu.icache.demand_accesses::.switch_cpus.inst      1197530                       # number of demand (read+write) accesses
system.cpu.icache.demand_accesses::total      1197530                       # number of demand (read+write) accesses
system.cpu.icache.overall_accesses::.switch_cpus.inst      1197530                       # number of overall (read+write) accesses
system.cpu.icache.overall_accesses::total      1197530                       # number of overall (read+write) accesses
system.cpu.icache.demand_miss_rate::.switch_cpus.inst     0.000037                       # miss rate for demand accesses
system.cpu.icache.demand_miss_rate::total     0.000037                       # miss rate for demand accesses
system.cpu.icache.overall_miss_rate::.switch_cpus.inst     0.000037                       # miss rate for overall accesses
system.cpu.icache.overall_miss_rate::total     0.000037                       # miss rate for overall accesses
system.cpu.icache.demand_avg_miss_latency::.switch_cpus.inst 66397.727273                       # average overall miss latency
system.cpu.icache.demand_avg_miss_latency::total 66397.727273                       # average overall miss latency
system.cpu.icache.overall_avg_miss_latency::.switch_cpus.inst 66397.727273                       # average overall miss latency
system.cpu.icache.overall_avg_miss_latency::total 66397.727273                       # average overall miss latency
system.cpu.icache.blocked_cycles::no_mshrs            0                       # number of cycles access was blocked
system.cpu.icache.blocked_cycles::no_targets            0                       # number of cycles access was blocked
system.cpu.icache.blocked::no_mshrs                 0                       # number of cycles access was blocked
system.cpu.icache.blocked::no_targets               0                       # number of cycles access was blocked
system.cpu.icache.avg_blocked_cycles::no_mshrs          nan                       # average number of cycles each access was blocked
system.cpu.icache.avg_blocked_cycles::no_targets          nan                       # average number of cycles each access was blocked
system.cpu.icache.writebacks::.writebacks           28                       # number of writebacks
system.cpu.icache.writebacks::total                28                       # number of writebacks
system.cpu.icache.demand_mshr_hits::.switch_cpus.inst           14                       # number of demand (read+write) MSHR hits
system.cpu.icache.demand_mshr_hits::total           14                       # number of demand (read+write) MSHR hits
system.cpu.icache.overall_mshr_hits::.switch_cpus.inst           14                       # number of overall MSHR hits
system.cpu.icache.overall_mshr_hits::total           14                       # number of overall MSHR hits
system.cpu.icache.demand_mshr_misses::.switch_cpus.inst           30                       # number of demand (read+write) MSHR misses
system.cpu.icache.demand_mshr_misses::total           30                       # number of demand (read+write) MSHR misses
system.cpu.icache.overall_mshr_misses::.switch_cpus.inst           30                       # number of overall MSHR misses
system.cpu.icache.overall_mshr_misses::total           30                       # number of overall MSHR misses
system.cpu.icache.demand_mshr_miss_latency::.switch_cpus.inst      2110500                       # number of demand (read+write) MSHR miss cycles
system.cpu.icache.demand_mshr_miss_latency::total      2110500                       # number of demand (read+write) MSHR miss cycles
system.cpu.icache.overall_mshr_miss_latency::.switch_cpus.inst      2110500                       # number of overall MSHR miss cycles
system.cpu.icache.overall_mshr_miss_latency::total      2110500                       # number of overall MSHR miss cycles
system.cpu.icache.demand_mshr_miss_rate::.switch_cpus.inst     0.000025                       # mshr miss rate for demand accesses
system.cpu.icache.demand_mshr_miss_rate::total     0.000025                       # mshr miss rate for demand accesses
system.cpu.icache.overall_mshr_miss_rate::.switch_cpus.inst     0.000025                       # mshr miss rate for overall accesses
system.cpu.icache.overall_mshr_miss_rate::total     0.000025                       # mshr miss rate for overall accesses
system.cpu.icache.demand_avg_mshr_miss_latency::.switch_cpus.inst        70350                       # average overall mshr miss latency
system.cpu.icache.demand_avg_mshr_miss_latency::total        70350                       # average overall mshr miss latency
system.cpu.icache.overall_avg_mshr_miss_latency::.switch_cpus.inst        70350                       # average overall mshr miss latency
system.cpu.icache.overall_avg_mshr_miss_latency::total        70350                       # average overall mshr miss latency
system.cpu.icache.replacements                     28                       # number of replacements
system.cpu.icache.ReadReq_hits::.switch_cpus.inst      1197486                       # number of ReadReq hits
system.cpu.icache.ReadReq_hits::total         1197486                       # number of ReadReq hits
system.cpu.icache.ReadReq_misses::.switch_cpus.inst           44                       # number of ReadReq misses
system.cpu.icache.ReadReq_misses::total            44                       # number of ReadReq misses
system.cpu.icache.ReadReq_miss_latency::.switch_cpus.inst      2921500                       # number of ReadReq miss cycles
system.cpu.icache.ReadReq_miss_latency::total      2921500                       # number of ReadReq miss cycles
system.cpu.icache.ReadReq_accesses::.switch_cpus.inst      1197530                       # number of ReadReq accesses(hits+misses)
system.cpu.icache.ReadReq_accesses::total      1197530                       # number of ReadReq accesses(hits+misses)
system.cpu.icache.ReadReq_miss_rate::.switch_cpus.inst     0.000037                       # miss rate for ReadReq accesses
system.cpu.icache.ReadReq_miss_rate::total     0.000037                       # miss rate for ReadReq accesses
system.cpu.icache.ReadReq_avg_miss_latency::.switch_cpus.inst 66397.727273                       # average ReadReq miss latency
system.cpu.icache.ReadReq_avg_miss_latency::total 66397.727273                       # average ReadReq miss latency
system.cpu.icache.ReadReq_mshr_hits::.switch_cpus.inst           14                       # number of ReadReq MSHR hits
system.cpu.icache.ReadReq_mshr_hits::total           14                       # number of ReadReq MSHR hits
system.cpu.icache.ReadReq_mshr_misses::.switch_cpus.inst           30                       # number of ReadReq MSHR misses
system.cpu.icache.ReadReq_mshr_misses::total           30                       # number of ReadReq MSHR misses
system.cpu.icache.ReadReq_mshr_miss_latency::.switch_cpus.inst      2110500                       # number of ReadReq MSHR miss cycles
system.cpu.icache.ReadReq_mshr_miss_latency::total      2110500                       # number of ReadReq MSHR miss cycles
system.cpu.icache.ReadReq_mshr_miss_rate::.switch_cpus.inst     0.000025                       # mshr miss rate for ReadReq accesses
system.cpu.icache.ReadReq_mshr_miss_rate::total     0.000025                       # mshr miss rate for ReadReq accesses
system.cpu.icache.ReadReq_avg_mshr_miss_latency::.switch_cpus.inst        70350                       # average ReadReq mshr miss latency
system.cpu.icache.ReadReq_avg_mshr_miss_latency::total        70350                       # average ReadReq mshr miss latency
system.cpu.icache.power_state.pwrStateResidencyTicks::UNDEFINED   3894342000                       # Cumulative time (in ticks) in various power states
system.cpu.icache.tags.tagsinuse           973.604653                       # Cycle average of tags in use
system.cpu.icache.tags.total_refs             2333660                       # Total number of references to valid blocks.
system.cpu.icache.tags.sampled_refs              1002                       # Sample count of references to valid blocks.
system.cpu.icache.tags.avg_refs           2329.001996                       # Average number of references to valid blocks.
system.cpu.icache.tags.warmup_cycle                 0                       # Cycle when the warmup percentage was hit.
system.cpu.icache.tags.occ_blocks::.cpu.inst   949.404948                       # Average occupied blocks per requestor
system.cpu.icache.tags.occ_blocks::.switch_cpus.inst    24.199704                       # Average occupied blocks per requestor
system.cpu.icache.tags.occ_percent::.cpu.inst     0.927153                       # Average percentage of cache occupancy
system.cpu.icache.tags.occ_percent::.switch_cpus.inst     0.023633                       # Average percentage of cache occupancy
system.cpu.icache.tags.occ_percent::total     0.950786                       # Average percentage of cache occupancy
system.cpu.icache.tags.occ_task_id_blocks::1024          974                       # Occupied blocks per task id
system.cpu.icache.tags.age_task_id_blocks_1024::1            1                       # Occupied blocks per task id
system.cpu.icache.tags.age_task_id_blocks_1024::2            2                       # Occupied blocks per task id
system.cpu.icache.tags.age_task_id_blocks_1024::3          971                       # Occupied blocks per task id
system.cpu.icache.tags.occ_task_id_percent::1024     0.951172                       # Percentage of cache occupancy per task id
system.cpu.icache.tags.tag_accesses           2395090                       # Number of tag accesses
system.cpu.icache.tags.data_accesses          2395090                       # Number of data accesses
system.cpu.icache.tags.power_state.pwrStateResidencyTicks::UNDEFINED   3894342000                       # Cumulative time (in ticks) in various power states
system.cpu.interrupts.clk_domain.clock           8000                       # Clock period in ticks
system.cpu.itb.rdAccesses                           0                       # TLB accesses on read requests
system.cpu.itb.wrAccesses                           0                       # TLB accesses on write requests
system.cpu.itb.rdMisses                             0                       # TLB misses on read requests
system.cpu.itb.wrMisses                             0                       # TLB misses on write requests
system.cpu.itb.walker.power_state.pwrStateResidencyTicks::UNDEFINED   3894342000                       # Cumulative time (in ticks) in various power states
system.cpu.itb_walker_cache.blocked_cycles::no_mshrs            0                       # number of cycles access was blocked
system.cpu.itb_walker_cache.blocked_cycles::no_targets            0                       # number of cycles access was blocked
system.cpu.itb_walker_cache.blocked::no_mshrs            0                       # number of cycles access was blocked
system.cpu.itb_walker_cache.blocked::no_targets            0                       # number of cycles access was blocked
system.cpu.itb_walker_cache.avg_blocked_cycles::no_mshrs          nan                       # average number of cycles each access was blocked
system.cpu.itb_walker_cache.avg_blocked_cycles::no_targets          nan                       # average number of cycles each access was blocked
system.cpu.itb_walker_cache.replacements            0                       # number of replacements
system.cpu.itb_walker_cache.power_state.pwrStateResidencyTicks::UNDEFINED   3894342000                       # Cumulative time (in ticks) in various power states
system.cpu.itb_walker_cache.tags.tagsinuse            0                       # Cycle average of tags in use
system.cpu.itb_walker_cache.tags.total_refs            0                       # Total number of references to valid blocks.
system.cpu.itb_walker_cache.tags.sampled_refs            0                       # Sample count of references to valid blocks.
system.cpu.itb_walker_cache.tags.avg_refs          nan                       # Average number of references to valid blocks.
system.cpu.itb_walker_cache.tags.warmup_cycle            0                       # Cycle when the warmup percentage was hit.
system.cpu.itb_walker_cache.tags.tag_accesses            0                       # Number of tag accesses
system.cpu.itb_walker_cache.tags.data_accesses            0                       # Number of data accesses
system.cpu.itb_walker_cache.tags.power_state.pwrStateResidencyTicks::UNDEFINED   3894342000                       # Cumulative time (in ticks) in various power states
system.cpu.power_state.pwrStateResidencyTicks::OFF   2512568000                       # Cumulative time (in ticks) in various power states
system.cpu.thread_0.numInsts                        0                       # Number of Instructions committed
system.cpu.thread_0.numOps                          0                       # Number of Ops committed
system.cpu.thread_0.numMemRefs                      0                       # Number of Memory References
system.cpu_clk_domain.clock                       500                       # Clock period in ticks
system.cpu_voltage_domain.voltage                   1                       # Voltage in Volts
system.l2.demand_hits::.switch_cpus.inst            4                       # number of demand (read+write) hits
system.l2.demand_hits::.switch_cpus.data          277                       # number of demand (read+write) hits
system.l2.demand_hits::total                      281                       # number of demand (read+write) hits
system.l2.overall_hits::.switch_cpus.inst            4                       # number of overall hits
system.l2.overall_hits::.switch_cpus.data          277                       # number of overall hits
system.l2.overall_hits::total                     281                       # number of overall hits
system.l2.demand_misses::.switch_cpus.inst           26                       # number of demand (read+write) misses
system.l2.demand_misses::.switch_cpus.data         9362                       # number of demand (read+write) misses
system.l2.demand_misses::total                   9388                       # number of demand (read+write) misses
system.l2.overall_misses::.switch_cpus.inst           26                       # number of overall misses
system.l2.overall_misses::.switch_cpus.data         9362                       # number of overall misses
system.l2.overall_misses::total                  9388                       # number of overall misses
system.l2.demand_miss_latency::.switch_cpus.inst      2021500                       # number of demand (read+write) miss cycles
system.l2.demand_miss_latency::.switch_cpus.data    726931000                       # number of demand (read+write) miss cycles
system.l2.demand_miss_latency::total        728952500                       # number of demand (read+write) miss cycles
system.l2.overall_miss_latency::.switch_cpus.inst      2021500                       # number of overall miss cycles
system.l2.overall_miss_latency::.switch_cpus.data    726931000                       # number of overall miss cycles
system.l2.overall_miss_latency::total       728952500                       # number of overall miss cycles
system.l2.demand_accesses::.switch_cpus.inst           30                       # number of demand (read+write) accesses
system.l2.demand_accesses::.switch_cpus.data         9639                       # number of demand (read+write) accesses
system.l2.demand_accesses::total                 9669                       # number of demand (read+write) accesses
system.l2.overall_accesses::.switch_cpus.inst           30                       # number of overall (read+write) accesses
system.l2.overall_accesses::.switch_cpus.data         9639                       # number of overall (read+write) accesses
system.l2.overall_accesses::total                9669                       # number of overall (read+write) accesses
system.l2.demand_miss_rate::.switch_cpus.inst     0.866667                       # miss rate for demand accesses
system.l2.demand_miss_rate::.switch_cpus.data     0.971263                       # miss rate for demand accesses
system.l2.demand_miss_rate::total            0.970938                       # miss rate for demand accesses
system.l2.overall_miss_rate::.switch_cpus.inst     0.866667                       # miss rate for overall accesses
system.l2.overall_miss_rate::.switch_cpus.data     0.971263                       # miss rate for overall accesses
system.l2.overall_miss_rate::total           0.970938                       # miss rate for overall accesses
system.l2.demand_avg_miss_latency::.switch_cpus.inst        77750                       # average overall miss latency
system.l2.demand_avg_miss_latency::.switch_cpus.data 77646.977142                       # average overall miss latency
system.l2.demand_avg_miss_latency::total 77647.262463                       # average overall miss latency
system.l2.overall_avg_miss_latency::.switch_cpus.inst        77750                       # average overall miss latency
system.l2.overall_avg_miss_latency::.switch_cpus.data 77646.977142                       # average overall miss latency
system.l2.overall_avg_miss_latency::total 77647.262463                       # average overall miss latency
system.l2.blocked_cycles::no_mshrs                  0                       # number of cycles access was blocked
system.l2.blocked_cycles::no_targets                0                       # number of cycles access was blocked
system.l2.blocked::no_mshrs                         0                       # number of cycles access was blocked
system.l2.blocked::no_targets                       0                       # number of cycles access was blocked
system.l2.avg_blocked_cycles::no_mshrs            nan                       # average number of cycles each access was blocked
system.l2.avg_blocked_cycles::no_targets          nan                       # average number of cycles each access was blocked
system.l2.writebacks::.writebacks                3603                       # number of writebacks
system.l2.writebacks::total                      3603                       # number of writebacks
system.l2.demand_mshr_misses::.switch_cpus.inst           26                       # number of demand (read+write) MSHR misses
system.l2.demand_mshr_misses::.switch_cpus.data         9362                       # number of demand (read+write) MSHR misses
system.l2.demand_mshr_misses::total              9388                       # number of demand (read+write) MSHR misses
system.l2.overall_mshr_misses::.switch_cpus.inst           26                       # number of overall MSHR misses
system.l2.overall_mshr_misses::.switch_cpus.data         9362                       # number of overall MSHR misses
system.l2.overall_mshr_misses::total             9388                       # number of overall MSHR misses
system.l2.demand_mshr_miss_latency::.switch_cpus.inst      1761500                       # number of demand (read+write) MSHR miss cycles
system.l2.demand_mshr_miss_latency::.switch_cpus.data    633311000                       # number of demand (read+write) MSHR miss cycles
system.l2.demand_mshr_miss_latency::total    635072500                       # number of demand (read+write) MSHR miss cycles
system.l2.overall_mshr_miss_latency::.switch_cpus.inst      1761500                       # number of overall MSHR miss cycles
system.l2.overall_mshr_miss_latency::.switch_cpus.data    633311000                       # number of overall MSHR miss cycles
system.l2.overall_mshr_miss_latency::total    635072500                       # number of overall MSHR miss cycles
system.l2.demand_mshr_miss_rate::.switch_cpus.inst     0.866667                       # mshr miss rate for demand accesses
system.l2.demand_mshr_miss_rate::.switch_cpus.data     0.971263                       # mshr miss rate for demand accesses
system.l2.demand_mshr_miss_rate::total       0.970938                       # mshr miss rate for demand accesses
system.l2.overall_mshr_miss_rate::.switch_cpus.inst     0.866667                       # mshr miss rate for overall accesses
system.l2.overall_mshr_miss_rate::.switch_cpus.data     0.971263                       # mshr miss rate for overall accesses
system.l2.overall_mshr_miss_rate::total      0.970938                       # mshr miss rate for overall accesses
system.l2.demand_avg_mshr_miss_latency::.switch_cpus.inst        67750                       # average overall mshr miss latency
system.l2.demand_avg_mshr_miss_latency::.switch_cpus.data 67646.977142                       # average overall mshr miss latency
system.l2.demand_avg_mshr_miss_latency::total 67647.262463                       # average overall mshr miss latency
system.l2.overall_avg_mshr_miss_latency::.switch_cpus.inst        67750                       # average overall mshr miss latency
system.l2.overall_avg_mshr_miss_latency::.switch_cpus.data 67646.977142                       # average overall mshr miss latency
system.l2.overall_avg_mshr_miss_latency::total 67647.262463                       # average overall mshr miss latency
system.l2.replacements                           7681                       # number of replacements
system.l2.WritebackDirty_hits::.writebacks         9560                       # number of WritebackDirty hits
system.l2.WritebackDirty_hits::total             9560                       # number of WritebackDirty hits
system.l2.WritebackDirty_accesses::.writebacks         9560                       # number of WritebackDirty accesses(hits+misses)
system.l2.WritebackDirty_accesses::total         9560                       # number of WritebackDirty accesses(hits+misses)
system.l2.WritebackClean_hits::.writebacks           28                       # number of WritebackClean hits
system.l2.WritebackClean_hits::total               28                       # number of WritebackClean hits
system.l2.WritebackClean_accesses::.writebacks           28                       # number of WritebackClean accesses(hits+misses)
system.l2.WritebackClean_accesses::total           28                       # number of WritebackClean accesses(hits+misses)
system.l2.ReadExReq_hits::.switch_cpus.data           59                       # number of ReadExReq hits
system.l2.ReadExReq_hits::total                    59                       # number of ReadExReq hits
system.l2.ReadExReq_misses::.switch_cpus.data         9358                       # number of ReadExReq misses
system.l2.ReadExReq_misses::total                9358                       # number of ReadExReq misses
system.l2.ReadExReq_miss_latency::.switch_cpus.data    726588000                       # number of ReadExReq miss cycles
system.l2.ReadExReq_miss_latency::total     726588000                       # number of ReadExReq miss cycles
system.l2.ReadExReq_accesses::.switch_cpus.data         9417                       # number of ReadExReq accesses(hits+misses)
system.l2.ReadExReq_accesses::total              9417                       # number of ReadExReq accesses(hits+misses)
system.l2.ReadExReq_miss_rate::.switch_cpus.data     0.993735                       # miss rate for ReadExReq accesses
system.l2.ReadExReq_miss_rate::total         0.993735                       # miss rate for ReadExReq accesses
system.l2.ReadExReq_avg_miss_latency::.switch_cpus.data 77643.513571                       # average ReadExReq miss latency
system.l2.ReadExReq_avg_miss_latency::total 77643.513571                       # average ReadExReq miss latency
system.l2.ReadExReq_mshr_misses::.switch_cpus.data         9358                       # number of ReadExReq MSHR misses
system.l2.ReadExReq_mshr_misses::total           9358                       # number of ReadExReq MSHR misses
system.l2.ReadExReq_mshr_miss_latency::.switch_cpus.data    633008000                       # number of ReadExReq MSHR miss cycles
system.l2.ReadExReq_mshr_miss_latency::total    633008000                       # number of ReadExReq MSHR miss cycles
system.l2.ReadExReq_mshr_miss_rate::.switch_cpus.data     0.993735                       # mshr miss rate for ReadExReq accesses
system.l2.ReadExReq_mshr_miss_rate::total     0.993735                       # mshr miss rate for ReadExReq accesses
system.l2.ReadExReq_avg_mshr_miss_latency::.switch_cpus.data 67643.513571                       # average ReadExReq mshr miss latency
system.l2.ReadExReq_avg_mshr_miss_latency::total 67643.513571                       # average ReadExReq mshr miss latency
system.l2.ReadCleanReq_hits::.switch_cpus.inst            4                       # number of ReadCleanReq hits
system.l2.ReadCleanReq_hits::total                  4                       # number of ReadCleanReq hits
system.l2.ReadCleanReq_misses::.switch_cpus.inst           26                       # number of ReadCleanReq misses
system.l2.ReadCleanReq_misses::total               26                       # number of ReadCleanReq misses
system.l2.ReadCleanReq_miss_latency::.switch_cpus.inst      2021500                       # number of ReadCleanReq miss cycles
system.l2.ReadCleanReq_miss_latency::total      2021500                       # number of ReadCleanReq miss cycles
system.l2.ReadCleanReq_accesses::.switch_cpus.inst           30                       # number of ReadCleanReq accesses(hits+misses)
system.l2.ReadCleanReq_accesses::total             30                       # number of ReadCleanReq accesses(hits+misses)
system.l2.ReadCleanReq_miss_rate::.switch_cpus.inst     0.866667                       # miss rate for ReadCleanReq accesses
system.l2.ReadCleanReq_miss_rate::total      0.866667                       # miss rate for ReadCleanReq accesses
system.l2.ReadCleanReq_avg_miss_latency::.switch_cpus.inst        77750                       # average ReadCleanReq miss latency
system.l2.ReadCleanReq_avg_miss_latency::total        77750                       # average ReadCleanReq miss latency
[...]
system.switch_cpus.commit.committedInstType_0::FloatDiv            0      0.00%     55.95% # Class of committed instruction
system.switch_cpus.commit.committedInstType_0::FloatMisc            0      0.00%     55.95% # Class of committed instruction
system.switch_cpus.commit.committedInstType_0::FloatSqrt            0      0.00%     55.95% # Class of committed instruction
system.switch_cpus.commit.committedInstType_0::SimdAdd            0      0.00%     55.95% # Class of committed instruction
system.switch_cpus.commit.committedInstType_0::SimdAddAcc            0      0.00%     55.95% # Class of committed instruction
system.switch_cpus.commit.committedInstType_0::SimdAlu       894998      5.08%     61.03% # Class of committed instruction
system.switch_cpus.commit.committedInstType_0::SimdCmp            0      0.00%     61.03% # Class of committed instruction
system.switch_cpus.commit.committedInstType_0::SimdCvt            0      0.00%     61.03% # Class of committed instruction
system.switch_cpus.commit.committedInstType_0::SimdMisc       894944      5.08%     66.11% # Class of committed instruction
system.switch_cpus.commit.committedInstType_0::SimdMult            0      0.00%     66.11% # Class of committed instruction
system.switch_cpus.commit.committedInstType_0::SimdMultAcc            0      0.00%     66.11% # Class of committed instruction
system.switch_cpus.commit.committedInstType_0::SimdShift            0      0.00%     66.11% # Class of committed instruction
system.switch_cpus.commit.committedInstType_0::SimdShiftAcc            0      0.00%     66.11% # Class of committed instruction
system.switch_cpus.commit.committedInstType_0::SimdDiv            0      0.00%     66.11% # Class of committed instruction
system.switch_cpus.commit.committedInstType_0::SimdSqrt            0      0.00%     66.11% # Class of committed instruction
system.switch_cpus.commit.committedInstType_0::SimdFloatAdd      1491554      8.47%     74.58% # Class of committed instruction
system.switch_cpus.commit.committedInstType_0::SimdFloatAlu            0      0.00%     74.58% # Class of committed instruction
system.switch_cpus.commit.committedInstType_0::SimdFloatCmp            0      0.00%     74.58% # Class of committed instruction
system.switch_cpus.commit.committedInstType_0::SimdFloatCvt       745785      4.23%     78.82% # Class of committed instruction
system.switch_cpus.commit.committedInstType_0::SimdFloatDiv            0      0.00%     78.82% # Class of committed instruction
system.switch_cpus.commit.committedInstType_0::SimdFloatMisc            0      0.00%     78.82% # Class of committed instruction
system.switch_cpus.commit.committedInstType_0::SimdFloatMult      1044072      5.93%     84.74% # Class of committed instruction
system.switch_cpus.commit.committedInstType_0::SimdFloatMultAcc            0      0.00%     84.74% # Class of committed instruction
system.switch_cpus.commit.committedInstType_0::SimdFloatSqrt            0      0.00%     84.74% # Class of committed instruction
system.switch_cpus.commit.committedInstType_0::SimdReduceAdd            0      0.00%     84.74% # Class of committed instruction
system.switch_cpus.commit.committedInstType_0::SimdReduceAlu            0      0.00%     84.74% # Class of committed instruction
system.switch_cpus.commit.committedInstType_0::SimdReduceCmp            0      0.00%     84.74% # Class of committed instruction
system.switch_cpus.commit.committedInstType_0::SimdFloatReduceAdd            0      0.00%     84.74% # Class of committed instruction
system.switch_cpus.commit.committedInstType_0::SimdFloatReduceCmp            0      0.00%     84.74% # Class of committed instruction
system.switch_cpus.commit.committedInstType_0::SimdAes            0      0.00%     84.74% # Class of committed instruction
system.switch_cpus.commit.committedInstType_0::SimdAesMix            0      0.00%     84.74% # Class of committed instruction
system.switch_cpus.commit.committedInstType_0::SimdSha1Hash            0      0.00%     84.74% # Class of committed instruction
system.switch_cpus.commit.committedInstType_0::SimdSha1Hash2            0      0.00%     84.74% # Class of committed instruction
system.switch_cpus.commit.committedInstType_0::SimdSha256Hash            0      0.00%     84.74% # Class of committed instruction
system.switch_cpus.commit.committedInstType_0::SimdSha256Hash2            0      0.00%     84.74% # Class of committed instruction
system.switch_cpus.commit.committedInstType_0::SimdShaSigma2            0      0.00%     84.74% # Class of committed instruction
system.switch_cpus.commit.committedInstType_0::SimdShaSigma3            0      0.00%     84.74% # Class of committed instruction
system.switch_cpus.commit.committedInstType_0::SimdPredAlu            0      0.00%     84.74% # Class of committed instruction
system.switch_cpus.commit.committedInstType_0::MemRead       597611      3.39%     88.14% # Class of committed instruction
system.switch_cpus.commit.committedInstType_0::MemWrite       448689      2.55%     90.68% # Class of committed instruction
system.switch_cpus.commit.committedInstType_0::FloatMemRead      1640704      9.32%    100.00% # Class of committed instruction
system.switch_cpus.commit.committedInstType_0::FloatMemWrite           81      0.00%    100.00% # Class of committed instruction
system.switch_cpus.commit.committedInstType_0::IprAccess            0      0.00%    100.00% # Class of committed instruction
system.switch_cpus.commit.committedInstType_0::InstPrefetch            0      0.00%    100.00% # Class of committed instruction
system.switch_cpus.commit.committedInstType_0::total     17613021                       # Class of committed instruction
system.switch_cpus.commit.commitEligibleSamples       894989                       # number cycles where commit BW limit reached
system.switch_cpus.decode.idleCycles           568004                       # Number of cycles decode is idle
system.switch_cpus.decode.blockedCycles       2245470                       # Number of cycles decode is blocked
system.switch_cpus.decode.runCycles            916407                       # Number of cycles decode is running
system.switch_cpus.decode.unblockCycles       1294607                       # Number of cycles decode is unblocking
system.switch_cpus.decode.squashCycles            340                       # Number of cycles decode is squashing
system.switch_cpus.decode.branchResolved       299776                       # Number of times decode resolved a  branch
system.switch_cpus.decode.branchMispred            28                       # Number of times decode detected a branch misprediction
system.switch_cpus.decode.decodedInsts       17649626                       # Number of instructions handled by decode
system.switch_cpus.decode.squashedInsts           114                       # Number of squashed instructions handled by decode
system.switch_cpus.dtb.rdAccesses             2241786                       # TLB accesses on read requests
system.switch_cpus.dtb.wrAccesses              449535                       # TLB accesses on write requests
system.switch_cpus.dtb.rdMisses                    19                       # TLB misses on read requests
system.switch_cpus.dtb.wrMisses                   339                       # TLB misses on write requests
system.switch_cpus.dtb.walker.power_state.pwrStateResidencyTicks::UNDEFINED   3894342000                       # Cumulative time (in ticks) in various power states
system.switch_cpus.fetch.icacheStallCycles      1198198                       # Number of cycles fetch is stalled on an Icache miss
system.switch_cpus.fetch.insts               10023966                       # Number of instructions fetch has processed
system.switch_cpus.fetch.branches             1048286                       # Number of branches that fetch encountered
system.switch_cpus.fetch.predictedBranches       599027                       # Number of branches that fetch has predicted taken
system.switch_cpus.fetch.cycles               3826141                       # Number of cycles fetch has run and was not squashing or blocked
system.switch_cpus.fetch.squashCycles             732                       # Number of cycles fetch has spent squashing
system.switch_cpus.fetch.miscStallCycles           13                       # Number of cycles fetch has spent waiting on interrupts,or bad addresses, or out of MSHRs
system.switch_cpus.fetch.pendingTrapStallCycles          116                       # Number of stall cycles due to pending traps
system.switch_cpus.fetch.cacheLines           1197530                       # Number of cache lines fetched
system.switch_cpus.fetch.icacheSquashes           101                       # Number of outstanding Icache misses that were squashed
system.switch_cpus.fetch.nisnDist::samples      5024834                       # Number of instructions fetched each cycle (Total)
system.switch_cpus.fetch.nisnDist::mean      3.513725                       # Number of instructions fetched each cycle (Total)
system.switch_cpus.fetch.nisnDist::stdev     3.573702                       # Number of instructions fetched each cycle (Total)
system.switch_cpus.fetch.nisnDist::underflows            0      0.00%      0.00% # Number of instructions fetched each cycle (Total)
system.switch_cpus.fetch.nisnDist::0          2073999     41.27%     41.27% # Number of instructions fetched each cycle (Total)
system.switch_cpus.fetch.nisnDist::1           259653      5.17%     46.44% # Number of instructions fetched each cycle (Total)
system.switch_cpus.fetch.nisnDist::2           372669      7.42%     53.86% # Number of instructions fetched each cycle (Total)
system.switch_cpus.fetch.nisnDist::3           110812      2.21%     56.06% # Number of instructions fetched each cycle (Total)
system.switch_cpus.fetch.nisnDist::4           112802      2.24%     58.31% # Number of instructions fetched each cycle (Total)
system.switch_cpus.fetch.nisnDist::5           110989      2.21%     60.52% # Number of instructions fetched each cycle (Total)
system.switch_cpus.fetch.nisnDist::6           149510      2.98%     63.49% # Number of instructions fetched each cycle (Total)
system.switch_cpus.fetch.nisnDist::7           259957      5.17%     68.67% # Number of instructions fetched each cycle (Total)
system.switch_cpus.fetch.nisnDist::8          1574443     31.33%    100.00% # Number of instructions fetched each cycle (Total)
system.switch_cpus.fetch.nisnDist::overflows            0      0.00%    100.00% # Number of instructions fetched each cycle (Total)
system.switch_cpus.fetch.nisnDist::min_value            0                       # Number of instructions fetched each cycle (Total)
system.switch_cpus.fetch.nisnDist::max_value            8                       # Number of instructions fetched each cycle (Total)
system.switch_cpus.fetch.nisnDist::total      5024834                       # Number of instructions fetched each cycle (Total)
system.switch_cpus.fetch.branchRate          0.208608                       # Number of branch fetches per cycle
system.switch_cpus.fetch.rate                1.994765                       # Number of inst fetches per cycle
system.switch_cpus.itb.rdAccesses                   0                       # TLB accesses on read requests
system.switch_cpus.itb.wrAccesses             1197552                       # TLB accesses on write requests
system.switch_cpus.itb.rdMisses                     0                       # TLB misses on read requests
system.switch_cpus.itb.wrMisses                    38                       # TLB misses on write requests
system.switch_cpus.itb.walker.power_state.pwrStateResidencyTicks::UNDEFINED   3894342000                       # Cumulative time (in ticks) in various power states
system.switch_cpus.lsq0.forwLoads              149604                       # Number of loads that had data forwarded from stores
system.switch_cpus.lsq0.squashedLoads            3745                       # Number of loads squashed
system.switch_cpus.lsq0.ignoredResponses            0                       # Number of memory responses ignored because the instruction is squashed
system.switch_cpus.lsq0.memOrderViolation            9                       # Number of memory ordering violations
system.switch_cpus.lsq0.squashedStores           1194                       # Number of stores squashed
system.switch_cpus.lsq0.rescheduledLoads           28                       # Number of loads that were rescheduled
system.switch_cpus.lsq0.blockedByCache             86                       # Number of times an access to memory failed due to the cache being blocked
system.switch_cpus.power_state.pwrStateResidencyTicks::OFF   3894342000                       # Cumulative time (in ticks) in various power states
system.switch_cpus.rename.squashCycles            340                       # Number of cycles rename is squashing
system.switch_cpus.rename.idleCycles           938376                       # Number of cycles rename is idle
system.switch_cpus.rename.blockCycles            9195                       # Number of cycles rename is blocking
system.switch_cpus.rename.serializeStallCycles            0                       # count of cycles rename stalledfor serializing inst
system.switch_cpus.rename.runCycles           1840567                       # Number of cycles rename is running
system.switch_cpus.rename.unblockCycles       2236350                       # Number of cycles rename is unblocking
system.switch_cpus.rename.renamedInsts       17647907                       # Number of instructions processed by rename
system.switch_cpus.rename.ROBFullEvents           130                       # Number of times rename has blocked due to ROB full
system.switch_cpus.rename.IQFullEvents        1847114                       # Number of times rename has blocked due to IQ full
system.switch_cpus.rename.SQFullEvents          92182                       # Number of times rename has blocked due to SQ full
system.switch_cpus.rename.renamedOperands     19742602                       # Number of destination operands rename has renamed
system.switch_cpus.rename.lookups            39634272                       # Number of register rename lookups that rename has made
system.switch_cpus.rename.intLookups         16762605                       # Number of integer rename lookups
system.switch_cpus.rename.fpLookups          12994894                       # Number of floating rename lookups
system.switch_cpus.rename.committedMaps      19703464                       # Number of HB maps that are committed
system.switch_cpus.rename.undoneMaps            38990                       # Number of HB maps that are undone due to squashing
system.switch_cpus.rename.serializing               0                       # count of serializing insts renamed
system.switch_cpus.rename.tempSerializing            0                       # count of temporary serializing insts renamed
system.switch_cpus.rename.skidInsts           5211512                       # count of insts added to the skid buffer
system.switch_cpus.rob.reads                 21763330                       # The number of ROB reads
system.switch_cpus.rob.writes                35281383                       # The number of ROB writes
system.switch_cpus.thread_0.numInsts         10000000                       # Number of Instructions committed
system.switch_cpus.thread_0.numOps           17613021                       # Number of Ops committed
system.switch_cpus.thread_0.numMemRefs              0                       # Number of Memory References
system.tol2bus.trans_dist::ReadResp               252                       # Transaction distribution
system.tol2bus.trans_dist::WritebackDirty        13163                       # Transaction distribution
system.tol2bus.trans_dist::WritebackClean           28                       # Transaction distribution
system.tol2bus.trans_dist::CleanEvict            4156                       # Transaction distribution
system.tol2bus.trans_dist::ReadExReq             9417                       # Transaction distribution
system.tol2bus.trans_dist::ReadExResp            9416                       # Transaction distribution
system.tol2bus.trans_dist::ReadCleanReq            30                       # Transaction distribution
system.tol2bus.trans_dist::ReadSharedReq          222                       # Transaction distribution
system.tol2bus.pkt_count_system.cpu.icache.mem_side_port::system.l2.cpu_side_port           88                       # Packet count per connected requestor and responder (bytes)
system.tol2bus.pkt_count_system.cpu.dcache.mem_side_port::system.l2.cpu_side_port        28915                       # Packet count per connected requestor and responder (bytes)
system.tol2bus.pkt_count::total                 29003                       # Packet count per connected requestor and responder (bytes)
system.tol2bus.pkt_size_system.cpu.icache.mem_side_port::system.l2.cpu_side_port         3712                       # Cumulative packet size per connected requestor and responder (bytes)
system.tol2bus.pkt_size_system.cpu.dcache.mem_side_port::system.l2.cpu_side_port      1228672                       # Cumulative packet size per connected requestor and responder (bytes)
system.tol2bus.pkt_size::total                1232384                       # Cumulative packet size per connected requestor and responder (bytes)
system.tol2bus.snoops                            7681                       # Total snoops (count)
system.tol2bus.snoopTraffic                    230592                       # Total snoop traffic (bytes)
system.tol2bus.snoop_fanout::samples            17350                       # Request fanout histogram
system.tol2bus.snoop_fanout::mean            0.056599                       # Request fanout histogram
system.tol2bus.snoop_fanout::stdev           0.231082                       # Request fanout histogram
system.tol2bus.snoop_fanout::underflows             0      0.00%      0.00% # Request fanout histogram
system.tol2bus.snoop_fanout::0                  16368     94.34%     94.34% # Request fanout histogram
system.tol2bus.snoop_fanout::1                    982      5.66%    100.00% # Request fanout histogram
system.tol2bus.snoop_fanout::2                      0      0.00%    100.00% # Request fanout histogram
system.tol2bus.snoop_fanout::3                      0      0.00%    100.00% # Request fanout histogram
system.tol2bus.snoop_fanout::4                      0      0.00%    100.00% # Request fanout histogram
system.tol2bus.snoop_fanout::overflows              0      0.00%    100.00% # Request fanout histogram
system.tol2bus.snoop_fanout::min_value              0                       # Request fanout histogram
system.tol2bus.snoop_fanout::max_value              1                       # Request fanout histogram
system.tol2bus.snoop_fanout::total              17350                       # Request fanout histogram
system.tol2bus.power_state.pwrStateResidencyTicks::UNDEFINED   3894342000                       # Cumulative time (in ticks) in various power states
system.tol2bus.reqLayer0.occupancy           19255500                       # Layer occupancy (ticks)
system.tol2bus.reqLayer0.utilization              0.8                       # Layer utilization (%)
system.tol2bus.respLayer0.occupancy             45499                       # Layer occupancy (ticks)
system.tol2bus.respLayer0.utilization             0.0                       # Layer utilization (%)
system.tol2bus.respLayer1.occupancy          14457000                       # Layer occupancy (ticks)
system.tol2bus.respLayer1.utilization             0.6                       # Layer utilization (%)
system.voltage_domain.voltage                       1                       # Voltage in Volts

---------- End Simulation Statistics   ----------
