
---------- Begin Simulation Statistics ----------
final_tick                                 6101249000                       # Number of ticks from beginning of simulation (restored from checkpoints and never reset)
host_inst_rate                                 166420                       # Simulator instruction rate (inst/s)
host_mem_usage                                8817952                       # Number of bytes of host memory used
host_op_rate                                   311323                       # Simulator op (including micro ops) rate (op/s)
host_seconds                                    66.10                       # Real time elapsed on the host
host_tick_rate                               76414970                       # Simulator tick rate (ticks/s)
sim_freq                                 1000000000000                       # Frequency of simulated ticks
sim_insts                                    11000001                       # Number of instructions simulated
sim_ops                                      20577856                       # Number of ops (including micro ops) simulated
sim_seconds                                  0.005051                       # Number of seconds simulated
sim_ticks                                  5050886000                       # Number of ticks simulated
system.cpu.committedInsts                           0                       # Number of instructions committed
system.cpu.committedOps                             0                       # Number of ops (including micro ops) committed
system.cpu.idle_fraction                            0                       # Percentage of idle cycles
system.cpu.not_idle_fraction                        1                       # Percentage of non-idle cycles
system.cpu.numCycles                                0                       # number of cpu cycles simulated
system.cpu.numWorkItemsCompleted                    0                       # number of work items this cpu completed
system.cpu.numWorkItemsStarted                      0                       # number of work items this cpu started
system.cpu.num_busy_cycles                          0                       # Number of busy cycles
system.cpu.num_conditional_control_insts            0                       # number of instructions that are conditional controls
system.cpu.num_fp_alu_accesses                      0                       # Number of float alu accesses
system.cpu.num_fp_insts                             0                       # number of float instructions
system.cpu.num_fp_register_reads                    0                       # number of times the floating registers were read
system.cpu.num_fp_register_writes                   0                       # number of times the floating registers were written
system.cpu.num_func_calls                           0                       # number of times a function call or return occured
system.cpu.num_idle_cycles                          0                       # Number of idle cycles
system.cpu.num_int_alu_accesses                     0                       # Number of integer alu accesses
system.cpu.num_int_insts                            0                       # number of integer instructions
system.cpu.num_int_register_reads                   0                       # number of times the integer registers were read
system.cpu.num_int_register_writes                  0                       # number of times the integer registers were written
system.cpu.num_load_insts                           0                       # Number of load instructions
system.cpu.num_mem_refs                             0                       # number of memory refs
system.cpu.num_store_insts                          0                       # Number of store instructions
system.cpu.num_vec_alu_accesses                     0                       # Number of vector alu accesses
system.cpu.num_vec_insts                            0                       # number of vector instructions
system.cpu.num_vec_register_reads                   0                       # number of times the vector registers were read
system.cpu.num_vec_register_writes                  0                       # number of times the vector registers were written
system.cpu.op_class::No_OpClass                     0                       # Class of executed instruction
system.cpu.op_class::IntAlu                         0                       # Class of executed instruction
system.cpu.op_class::IntMult                        0                       # Class of executed instruction
system.cpu.op_class::IntDiv                         0                       # Class of executed instruction
system.cpu.op_class::FloatAdd                       0                       # Class of executed instruction
system.cpu.op_class::FloatCmp                       0                       # Class of executed instruction
system.cpu.op_class::FloatCvt                       0                       # Class of executed instruction
system.cpu.op_class::FloatMult                      0                       # Class of executed instruction
system.cpu.op_class::FloatMultAcc                   0                       # Class of executed instruction
system.cpu.op_class::FloatDiv                       0                       # Class of executed instruction
system.cpu.op_class::FloatMisc                      0                       # Class of executed instruction
system.cpu.op_class::FloatSqrt                      0                       # Class of executed instruction
system.cpu.op_class::SimdAdd                        0                       # Class of executed instruction
system.cpu.op_class::SimdAddAcc                     0                       # Class of executed instruction
system.cpu.op_class::SimdAlu                        0                       # Class of executed instruction
system.cpu.op_class::SimdCmp                        0                       # Class of executed instruction
system.cpu.op_class::SimdCvt                        0                       # Class of executed instruction
system.cpu.op_class::SimdMisc                       0                       # Class of executed instruction
system.cpu.op_class::SimdMult                       0                       # Class of executed instruction
system.cpu.op_class::SimdMultAcc                    0                       # Class of executed instruction
system.cpu.op_class::SimdShift                      0                       # Class of executed instruction
system.cpu.op_class::SimdShiftAcc                   0                       # Class of executed instruction
system.cpu.op_class::SimdDiv                        0                       # Class of executed instruction
system.cpu.op_class::SimdSqrt                       0                       # Class of executed instruction
system.cpu.op_class::SimdFloatAdd                   0                       # Class of executed instruction
system.cpu.op_class::SimdFloatAlu                   0                       # Class of executed instruction
system.cpu.op_class::SimdFloatCmp                   0                       # Class of executed instruction
system.cpu.op_class::SimdFloatCvt                   0                       # Class of executed instruction
system.cpu.op_class::SimdFloatDiv                   0                       # Class of executed instruction
system.cpu.op_class::SimdFloatMisc                  0                       # Class of executed instruction
system.cpu.op_class::SimdFloatMult                  0                       # Class of executed instruction
system.cpu.op_class::SimdFloatMultAcc               0                       # Class of executed instruction
system.cpu.op_class::SimdFloatSqrt                  0                       # Class of executed instruction
system.cpu.op_class::SimdReduceAdd                  0                       # Class of executed instruction
system.cpu.op_class::SimdReduceAlu                  0                       # Class of executed instruction
system.cpu.op_class::SimdReduceCmp                  0                       # Class of executed instruction
system.cpu.op_class::SimdFloatReduceAdd             0                       # Class of executed instruction
system.cpu.op_class::SimdFloatReduceCmp             0                       # Class of executed instruction
system.cpu.op_class::SimdAes                        0                       # Class of executed instruction
system.cpu.op_class::SimdAesMix                     0                       # Class of executed instruction
system.cpu.op_class::SimdSha1Hash                   0                       # Class of executed instruction
system.cpu.op_class::SimdSha1Hash2                  0                       # Class of executed instruction
system.cpu.op_class::SimdSha256Hash                 0                       # Class of executed instruction
system.cpu.op_class::SimdSha256Hash2                0                       # Class of executed instruction
system.cpu.op_class::SimdShaSigma2                  0                       # Class of executed instruction
system.cpu.op_class::SimdShaSigma3                  0                       # Class of executed instruction
system.cpu.op_class::SimdPredAlu                    0                       # Class of executed instruction
system.cpu.op_class::MemRead                        0                       # Class of executed instruction
system.cpu.op_class::MemWrite                       0                       # Class of executed instruction
system.cpu.op_class::FloatMemRead                   0                       # Class of executed instruction
system.cpu.op_class::FloatMemWrite                  0                       # Class of executed instruction
system.cpu.op_class::IprAccess                      0                       # Class of executed instruction
system.cpu.op_class::InstPrefetch                   0                       # Class of executed instruction
system.cpu.op_class::total                          0                       # Class of executed instruction
system.cpu.workload.numSyscalls                    26                       # Number of system calls
system.membus.snoop_filter.hit_multi_requests            0                       # Number of requests hitting in the snoop filter with multiple (>1) holders of the requested data.
system.membus.snoop_filter.hit_multi_snoops            0                       # Number of snoops hitting in the snoop filter with multiple (>1) holders of the requested data.
system.membus.snoop_filter.hit_single_requests        33504                       # Number of requests hitting in the snoop filter with a single holder of the requested data.
system.membus.snoop_filter.hit_single_snoops            0                       # Number of snoops hitting in the snoop filter with a single holder of the requested data.
system.membus.snoop_filter.tot_requests         68988                       # Total number of requests made to the snoop filter.
system.membus.snoop_filter.tot_snoops               0                       # Total number of snoops made to the snoop filter.
system.switch_cpus.cc_regfile_reads          11422698                       # number of cc regfile reads
system.switch_cpus.cc_regfile_writes          7062097                       # number of cc regfile writes
system.switch_cpus.committedInsts            10000000                       # Number of Instructions Simulated
system.switch_cpus.committedOps              18817440                       # Number of Ops (including micro ops) Simulated
system.switch_cpus.cpi                       1.010177                       # CPI: Cycles Per Instruction
system.switch_cpus.cpi_total                 1.010177                       # CPI: Total CPI of All Threads
system.switch_cpus.fp_regfile_reads            205725                       # number of floating regfile reads
system.switch_cpus.fp_regfile_writes           111995                       # number of floating regfile writes
system.switch_cpus.idleCycles                  495027                       # Total number of cycles that the CPU has spent unscheduled due to idling
system.switch_cpus.iew.branchMispredicts       105247                       # Number of branch mispredicts detected at execute
system.switch_cpus.iew.exec_branches          2262412                       # Number of branches executed
system.switch_cpus.iew.exec_nop                     0                       # number of nop insts executed
system.switch_cpus.iew.exec_rate             2.069946                       # Inst execution rate
system.switch_cpus.iew.exec_refs              4248472                       # number of memory reference insts executed
system.switch_cpus.iew.exec_stores            1311485                       # Number of stores executed
system.switch_cpus.iew.exec_swp                     0                       # number of swp insts executed
system.switch_cpus.iew.iewBlockCycles         1183738                       # Number of cycles IEW is blocking
system.switch_cpus.iew.iewDispLoadInsts       3104871                       # Number of dispatched load instructions
system.switch_cpus.iew.iewDispNonSpecInsts          831                       # Number of dispatched non-speculative instructions
system.switch_cpus.iew.iewDispSquashedInsts         6973                       # Number of squashed instructions skipped by dispatch
system.switch_cpus.iew.iewDispStoreInsts      1375256                       # Number of dispatched store instructions
system.switch_cpus.iew.iewDispatchedInsts     22184831                       # Number of instructions dispatched to IQ
system.switch_cpus.iew.iewExecLoadInsts       2936987                       # Number of load instructions executed
system.switch_cpus.iew.iewExecSquashedInsts       165713                       # Number of squashed instructions skipped in execute
system.switch_cpus.iew.iewExecutedInsts      20910122                       # Number of executed instructions
system.switch_cpus.iew.iewIQFullEvents          10677                       # Number of times the IQ has become full, causing a stall
system.switch_cpus.iew.iewIdleCycles                0                       # Number of cycles IEW is idle
system.switch_cpus.iew.iewLSQFullEvents        179343                       # Number of times the LSQ has become full, causing a stall
system.switch_cpus.iew.iewSquashCycles          82328                       # Number of cycles IEW is squashing
system.switch_cpus.iew.iewUnblockCycles        194956                       # Number of cycles IEW is unblocking
system.switch_cpus.iew.memOrderViolationEvents          586                       # Number of memory order violations
system.switch_cpus.iew.predictedNotTakenIncorrect        64790                       # Number of branches that were predicted not taken incorrectly
system.switch_cpus.iew.predictedTakenIncorrect        40457                       # Number of branches that were predicted taken incorrectly
system.switch_cpus.iew.wb_consumers          25475821                       # num instructions consuming a value
system.switch_cpus.iew.wb_count              20810833                       # cumulative count of insts written-back
system.switch_cpus.iew.wb_fanout             0.594534                       # average fanout of values written-back
system.switch_cpus.iew.wb_producers          15146254                       # num instructions producing a value
system.switch_cpus.iew.wb_rate               2.060117                       # insts written-back per cycle
system.switch_cpus.iew.wb_sent               20854868                       # cumulative count of insts sent to commit
system.switch_cpus.int_regfile_reads         32126914                       # number of integer regfile reads
system.switch_cpus.int_regfile_writes        17191202                       # number of integer regfile writes
system.switch_cpus.ipc                       0.989925                       # IPC: Instructions Per Cycle
system.switch_cpus.ipc_total                 0.989925                       # IPC: Total IPC of All Threads
system.switch_cpus.iq.FU_type_0::No_OpClass       348916      1.66%      1.66% # Type of FU issued
system.switch_cpus.iq.FU_type_0::IntAlu      16134897     76.56%     78.21% # Type of FU issued
system.switch_cpus.iq.FU_type_0::IntMult        66719      0.32%     78.53% # Type of FU issued
system.switch_cpus.iq.FU_type_0::IntDiv        141232      0.67%     79.20% # Type of FU issued
system.switch_cpus.iq.FU_type_0::FloatAdd        10819      0.05%     79.25% # Type of FU issued
system.switch_cpus.iq.FU_type_0::FloatCmp            0      0.00%     79.25% # Type of FU issued
system.switch_cpus.iq.FU_type_0::FloatCvt         1166      0.01%     79.26% # Type of FU issued
system.switch_cpus.iq.FU_type_0::FloatMult            1      0.00%     79.26% # Type of FU issued
system.switch_cpus.iq.FU_type_0::FloatMultAcc            0      0.00%     79.26% # Type of FU issued
system.switch_cpus.iq.FU_type_0::FloatDiv            0      0.00%     79.26% # Type of FU issued
system.switch_cpus.iq.FU_type_0::FloatMisc            0      0.00%     79.26% # Type of FU issued
system.switch_cpus.iq.FU_type_0::FloatSqrt            0      0.00%     79.26% # Type of FU issued
system.switch_cpus.iq.FU_type_0::SimdAdd         4668      0.02%     79.28% # Type of FU issued
system.switch_cpus.iq.FU_type_0::SimdAddAcc            0      0.00%     79.28% # Type of FU issued
system.switch_cpus.iq.FU_type_0::SimdAlu        25257      0.12%     79.40% # Type of FU issued
system.switch_cpus.iq.FU_type_0::SimdCmp           78      0.00%     79.40% # Type of FU issued
system.switch_cpus.iq.FU_type_0::SimdCvt        12627      0.06%     79.46% # Type of FU issued
system.switch_cpus.iq.FU_type_0::SimdMisc        16972      0.08%     79.54% # Type of FU issued
system.switch_cpus.iq.FU_type_0::SimdMult            0      0.00%     79.54% # Type of FU issued
system.switch_cpus.iq.FU_type_0::SimdMultAcc            0      0.00%     79.54% # Type of FU issued
system.switch_cpus.iq.FU_type_0::SimdShift         3655      0.02%     79.56% # Type of FU issued
system.switch_cpus.iq.FU_type_0::SimdShiftAcc            0      0.00%     79.56% # Type of FU issued
system.switch_cpus.iq.FU_type_0::SimdDiv            0      0.00%     79.56% # Type of FU issued
system.switch_cpus.iq.FU_type_0::SimdSqrt            0      0.00%     79.56% # Type of FU issued
system.switch_cpus.iq.FU_type_0::SimdFloatAdd            6      0.00%     79.56% # Type of FU issued
system.switch_cpus.iq.FU_type_0::SimdFloatAlu            0      0.00%     79.56% # Type of FU issued
system.switch_cpus.iq.FU_type_0::SimdFloatCmp            0      0.00%     79.56% # Type of FU issued
system.switch_cpus.iq.FU_type_0::SimdFloatCvt          339      0.00%     79.56% # Type of FU issued
system.switch_cpus.iq.FU_type_0::SimdFloatDiv            1      0.00%     79.56% # Type of FU issued
system.switch_cpus.iq.FU_type_0::SimdFloatMisc            0      0.00%     79.56% # Type of FU issued
system.switch_cpus.iq.FU_type_0::SimdFloatMult          121      0.00%     79.56% # Type of FU issued
system.switch_cpus.iq.FU_type_0::SimdFloatMultAcc            0      0.00%     79.56% # Type of FU issued
system.switch_cpus.iq.FU_type_0::SimdFloatSqrt            1      0.00%     79.56% # Type of FU issued
system.switch_cpus.iq.FU_type_0::SimdReduceAdd            0      0.00%     79.56% # Type of FU issued
system.switch_cpus.iq.FU_type_0::SimdReduceAlu            0      0.00%     79.56% # Type of FU issued
system.switch_cpus.iq.FU_type_0::SimdReduceCmp            0      0.00%     79.56% # Type of FU issued
system.switch_cpus.iq.FU_type_0::SimdFloatReduceAdd            0      0.00%     79.56% # Type of FU issued
system.switch_cpus.iq.FU_type_0::SimdFloatReduceCmp            0      0.00%     79.56% # Type of FU issued
system.switch_cpus.iq.FU_type_0::SimdAes            0      0.00%     79.56% # Type of FU issued
system.switch_cpus.iq.FU_type_0::SimdAesMix            0      0.00%     79.56% # Type of FU issued
system.switch_cpus.iq.FU_type_0::SimdSha1Hash            0      0.00%     79.56% # Type of FU issued
system.switch_cpus.iq.FU_type_0::SimdSha1Hash2            0      0.00%     79.56% # Type of FU issued
system.switch_cpus.iq.FU_type_0::SimdSha256Hash            0      0.00%     79.56% # Type of FU issued
system.switch_cpus.iq.FU_type_0::SimdSha256Hash2            0      0.00%     79.56% # Type of FU issued
system.switch_cpus.iq.FU_type_0::SimdShaSigma2            0      0.00%     79.56% # Type of FU issued
system.switch_cpus.iq.FU_type_0::SimdShaSigma3            0      0.00%     79.56% # Type of FU issued
system.switch_cpus.iq.FU_type_0::SimdPredAlu            0      0.00%     79.56% # Type of FU issued
system.switch_cpus.iq.FU_type_0::MemRead      2935097     13.93%     93.48% # Type of FU issued
system.switch_cpus.iq.FU_type_0::MemWrite      1258956      5.97%     99.46% # Type of FU issued
system.switch_cpus.iq.FU_type_0::FloatMemRead        45859      0.22%     99.68% # Type of FU issued
system.switch_cpus.iq.FU_type_0::FloatMemWrite        68449      0.32%    100.00% # Type of FU issued
system.switch_cpus.iq.FU_type_0::IprAccess            0      0.00%    100.00% # Type of FU issued
system.switch_cpus.iq.FU_type_0::InstPrefetch            0      0.00%    100.00% # Type of FU issued
system.switch_cpus.iq.FU_type_0::total       21075836                       # Type of FU issued
system.switch_cpus.iq.fp_alu_accesses          202433                       # Number of floating point alu accesses
system.switch_cpus.iq.fp_inst_queue_reads       398088                       # Number of floating instruction queue reads
system.switch_cpus.iq.fp_inst_queue_wakeup_accesses       183067                       # Number of floating instruction queue wakeup accesses
system.switch_cpus.iq.fp_inst_queue_writes       276058                       # Number of floating instruction queue writes
system.switch_cpus.iq.fu_busy_cnt              350336                       # FU busy when requested
system.switch_cpus.iq.fu_busy_rate           0.016623                       # FU busy rate (busy events/executed inst)
system.switch_cpus.iq.fu_full::No_OpClass            0      0.00%      0.00% # attempts to use FU when none available
system.switch_cpus.iq.fu_full::IntAlu          300507     85.78%     85.78% # attempts to use FU when none available
system.switch_cpus.iq.fu_full::IntMult              0      0.00%     85.78% # attempts to use FU when none available
system.switch_cpus.iq.fu_full::IntDiv               0      0.00%     85.78% # attempts to use FU when none available
system.switch_cpus.iq.fu_full::FloatAdd             0      0.00%     85.78% # attempts to use FU when none available
system.switch_cpus.iq.fu_full::FloatCmp             0      0.00%     85.78% # attempts to use FU when none available
system.switch_cpus.iq.fu_full::FloatCvt             0      0.00%     85.78% # attempts to use FU when none available
system.switch_cpus.iq.fu_full::FloatMult            0      0.00%     85.78% # attempts to use FU when none available
system.switch_cpus.iq.fu_full::FloatMultAcc            0      0.00%     85.78% # attempts to use FU when none available
system.switch_cpus.iq.fu_full::FloatDiv             0      0.00%     85.78% # attempts to use FU when none available
system.switch_cpus.iq.fu_full::FloatMisc            0      0.00%     85.78% # attempts to use FU when none available
system.switch_cpus.iq.fu_full::FloatSqrt            0      0.00%     85.78% # attempts to use FU when none available
system.switch_cpus.iq.fu_full::SimdAdd              1      0.00%     85.78% # attempts to use FU when none available
system.switch_cpus.iq.fu_full::SimdAddAcc            0      0.00%     85.78% # attempts to use FU when none available
system.switch_cpus.iq.fu_full::SimdAlu            512      0.15%     85.92% # attempts to use FU when none available
system.switch_cpus.iq.fu_full::SimdCmp              0      0.00%     85.92% # attempts to use FU when none available
system.switch_cpus.iq.fu_full::SimdCvt            529      0.15%     86.07% # attempts to use FU when none available
system.switch_cpus.iq.fu_full::SimdMisc           372      0.11%     86.18% # attempts to use FU when none available
system.switch_cpus.iq.fu_full::SimdMult             0      0.00%     86.18% # attempts to use FU when none available
system.switch_cpus.iq.fu_full::SimdMultAcc            0      0.00%     86.18% # attempts to use FU when none available
system.switch_cpus.iq.fu_full::SimdShift           33      0.01%     86.19% # attempts to use FU when none available
system.switch_cpus.iq.fu_full::SimdShiftAcc            0      0.00%     86.19% # attempts to use FU when none available
system.switch_cpus.iq.fu_full::SimdDiv              0      0.00%     86.19% # attempts to use FU when none available
system.switch_cpus.iq.fu_full::SimdSqrt             0      0.00%     86.19% # attempts to use FU when none available
system.switch_cpus.iq.fu_full::SimdFloatAdd            0      0.00%     86.19% # attempts to use FU when none available
system.switch_cpus.iq.fu_full::SimdFloatAlu            0      0.00%     86.19% # attempts to use FU when none available
system.switch_cpus.iq.fu_full::SimdFloatCmp            0      0.00%     86.19% # attempts to use FU when none available
system.switch_cpus.iq.fu_full::SimdFloatCvt            0      0.00%     86.19% # attempts to use FU when none available
system.switch_cpus.iq.fu_full::SimdFloatDiv            0      0.00%     86.19% # attempts to use FU when none available
system.switch_cpus.iq.fu_full::SimdFloatMisc            0      0.00%     86.19% # attempts to use FU when none available
system.switch_cpus.iq.fu_full::SimdFloatMult            0      0.00%     86.19% # attempts to use FU when none available
system.switch_cpus.iq.fu_full::SimdFloatMultAcc            0      0.00%     86.19% # attempts to use FU when none available
system.switch_cpus.iq.fu_full::SimdFloatSqrt            0      0.00%     86.19% # attempts to use FU when none available
system.switch_cpus.iq.fu_full::SimdReduceAdd            0      0.00%     86.19% # attempts to use FU when none available
system.switch_cpus.iq.fu_full::SimdReduceAlu            0      0.00%     86.19% # attempts to use FU when none available
system.switch_cpus.iq.fu_full::SimdReduceCmp            0      0.00%     86.19% # attempts to use FU when none available
system.switch_cpus.iq.fu_full::SimdFloatReduceAdd            0      0.00%     86.19% # attempts to use FU when none available
system.switch_cpus.iq.fu_full::SimdFloatReduceCmp            0      0.00%     86.19% # attempts to use FU when none available
system.switch_cpus.iq.fu_full::SimdAes              0      0.00%     86.19% # attempts to use FU when none available
system.switch_cpus.iq.fu_full::SimdAesMix            0      0.00%     86.19% # attempts to use FU when none available
system.switch_cpus.iq.fu_full::SimdSha1Hash            0      0.00%     86.19% # attempts to use FU when none available
system.switch_cpus.iq.fu_full::SimdSha1Hash2            0      0.00%     86.19% # attempts to use FU when none available
system.switch_cpus.iq.fu_full::SimdSha256Hash            0      0.00%     86.19% # attempts to use FU when none available
system.switch_cpus.iq.fu_full::SimdSha256Hash2            0      0.00%     86.19% # attempts to use FU when none available
system.switch_cpus.iq.fu_full::SimdShaSigma2            0      0.00%     86.19% # attempts to use FU when none available
system.switch_cpus.iq.fu_full::SimdShaSigma3            0      0.00%     86.19% # attempts to use FU when none available
system.switch_cpus.iq.fu_full::SimdPredAlu            0      0.00%     86.19% # attempts to use FU when none available
system.switch_cpus.iq.fu_full::MemRead          29380      8.39%     94.58% # attempts to use FU when none available
system.switch_cpus.iq.fu_full::MemWrite         12478      3.56%     98.14% # attempts to use FU when none available
system.switch_cpus.iq.fu_full::FloatMemRead         2981      0.85%     98.99% # attempts to use FU when none available
system.switch_cpus.iq.fu_full::FloatMemWrite         3543      1.01%    100.00% # attempts to use FU when none available
system.switch_cpus.iq.fu_full::IprAccess            0      0.00%    100.00% # attempts to use FU when none available
system.switch_cpus.iq.fu_full::InstPrefetch            0      0.00%    100.00% # attempts to use FU when none available
system.switch_cpus.iq.int_alu_accesses       20874823                       # Number of integer alu accesses
system.switch_cpus.iq.int_inst_queue_reads     51762327                       # Number of integer instruction queue reads
system.switch_cpus.iq.int_inst_queue_wakeup_accesses     20627766                       # Number of integer instruction queue wakeup accesses
system.switch_cpus.iq.int_inst_queue_writes     25276702                       # Number of integer instruction queue writes
system.switch_cpus.iq.iqInstsAdded           22183573                       # Number of instructions added to the IQ (excludes non-spec)
system.switch_cpus.iq.iqInstsIssued          21075836                       # Number of instructions issued
system.switch_cpus.iq.iqNonSpecInstsAdded         1258                       # Number of non-speculative instructions added to the IQ
system.switch_cpus.iq.iqSquashedInstsExamined      3367368                       # Number of squashed instructions iterated over during squash; mainly for profiling
system.switch_cpus.iq.iqSquashedInstsIssued        51663                       # Number of squashed instructions issued
system.switch_cpus.iq.iqSquashedNonSpecRemoved          553                       # Number of squashed non-spec instructions that were removed
system.switch_cpus.iq.iqSquashedOperandsExamined      4599463                       # Number of squashed operands that are examined and possibly removed from graph
system.switch_cpus.iq.issued_per_cycle::samples      9606745                       # Number of insts issued each cycle
system.switch_cpus.iq.issued_per_cycle::mean     2.193858                       # Number of insts issued each cycle
system.switch_cpus.iq.issued_per_cycle::stdev     2.423354                       # Number of insts issued each cycle
system.switch_cpus.iq.issued_per_cycle::underflows            0      0.00%      0.00% # Number of insts issued each cycle
system.switch_cpus.iq.issued_per_cycle::0      4137522     43.07%     43.07% # Number of insts issued each cycle
system.switch_cpus.iq.issued_per_cycle::1       771065      8.03%     51.10% # Number of insts issued each cycle
system.switch_cpus.iq.issued_per_cycle::2       847969      8.83%     59.92% # Number of insts issued each cycle
system.switch_cpus.iq.issued_per_cycle::3       933441      9.72%     69.64% # Number of insts issued each cycle
system.switch_cpus.iq.issued_per_cycle::4       874842      9.11%     78.75% # Number of insts issued each cycle
system.switch_cpus.iq.issued_per_cycle::5       735060      7.65%     86.40% # Number of insts issued each cycle
system.switch_cpus.iq.issued_per_cycle::6       696122      7.25%     93.64% # Number of insts issued each cycle
system.switch_cpus.iq.issued_per_cycle::7       428682      4.46%     98.11% # Number of insts issued each cycle
system.switch_cpus.iq.issued_per_cycle::8       182042      1.89%    100.00% # Number of insts issued each cycle
system.switch_cpus.iq.issued_per_cycle::overflows            0      0.00%    100.00% # Number of insts issued each cycle
system.switch_cpus.iq.issued_per_cycle::min_value            0                       # Number of insts issued each cycle
system.switch_cpus.iq.issued_per_cycle::max_value            8                       # Number of insts issued each cycle
system.switch_cpus.iq.issued_per_cycle::total      9606745                       # Number of insts issued each cycle
system.switch_cpus.iq.rate                   2.086350                       # Inst issue rate
system.switch_cpus.iq.vec_alu_accesses              0                       # Number of vector alu accesses
system.switch_cpus.iq.vec_inst_queue_reads            0                       # Number of vector instruction queue reads
system.switch_cpus.iq.vec_inst_queue_wakeup_accesses            0                       # Number of vector instruction queue wakeup accesses
system.switch_cpus.iq.vec_inst_queue_writes            0                       # Number of vector instruction queue writes
system.switch_cpus.memDep0.conflictingLoads        54763                       # Number of conflicting loads.
system.switch_cpus.memDep0.conflictingStores        66012                       # Number of conflicting stores.
system.switch_cpus.memDep0.insertedLoads      3104871                       # Number of loads inserted to the mem dependence unit.
system.switch_cpus.memDep0.insertedStores      1375256                       # Number of stores inserted to the mem dependence unit.
system.switch_cpus.misc_regfile_reads         8835526                       # number of misc regfile reads
system.switch_cpus.misc_regfile_writes            639                       # number of misc regfile writes
system.switch_cpus.numCycles                 10101772                       # number of cpu cycles simulated
system.switch_cpus.numWorkItemsCompleted            0                       # number of work items this cpu completed
system.switch_cpus.numWorkItemsStarted              0                       # number of work items this cpu started
system.switch_cpus.timesIdled                   19786                       # Number of times that the entire CPU went into an idle state and unscheduled itself
system.tol2bus.snoop_filter.hit_multi_requests          626                       # Number of requests hitting in the snoop filter with multiple (>1) holders of the requested data.
system.tol2bus.snoop_filter.hit_multi_snoops            8                       # Number of snoops hitting in the snoop filter with multiple (>1) holders of the requested data.
system.tol2bus.snoop_filter.hit_single_requests       102687                       # Number of requests hitting in the snoop filter with a single holder of the requested data.
system.tol2bus.snoop_filter.hit_single_snoops         1916                       # Number of snoops hitting in the snoop filter with a single holder of the requested data.
system.tol2bus.snoop_filter.tot_requests       205854                       # Total number of requests made to the snoop filter.
system.tol2bus.snoop_filter.tot_snoops           1924                       # Total number of snoops made to the snoop filter.
system.clk_domain.clock                          1000                       # Clock period in ticks
system.cpu.branchPred.lookups                       0                       # Number of BP lookups
system.cpu.branchPred.condPredicted                 0                       # Number of conditional branches predicted
system.cpu.branchPred.condIncorrect                 0                       # Number of conditional branches incorrect
system.cpu.branchPred.BTBLookups                    0                       # Number of BTB lookups
system.cpu.branchPred.BTBHits                       0                       # Number of BTB hits
system.cpu.branchPred.BTBHitPct                   nan                       # BTB Hit Percentage
system.cpu.branchPred.RASUsed                       0                       # Number of times the RAS was used to get a target.
system.cpu.branchPred.RASIncorrect                  0                       # Number of incorrect RAS predictions.
system.cpu.branchPred.indirectLookups               0                       # Number of indirect predictor lookups.
system.cpu.branchPred.indirectHits                  0                       # Number of indirect target hits.
system.cpu.branchPred.indirectMisses                0                       # Number of indirect misses.
system.cpu.branchPred.indirectMispredicted            0                       # Number of mispredicted indirect branches.
system.cpu.dcache.demand_hits::.switch_cpus.data      3665267                       # number of demand (read+write) hits
system.cpu.dcache.demand_hits::total          3665267                       # number of demand (read+write) hits
system.cpu.dcache.overall_hits::.switch_cpus.data      3665428                       # number of overall hits
system.cpu.dcache.overall_hits::total         3665428                       # number of overall hits
system.cpu.dcache.demand_misses::.switch_cpus.data       122922                       # number of demand (read+write) misses
system.cpu.dcache.demand_misses::total         122922                       # number of demand (read+write) misses
system.cpu.dcache.overall_misses::.switch_cpus.data       122929                       # number of overall misses
system.cpu.dcache.overall_misses::total        122929                       # number of overall misses
system.cpu.dcache.demand_miss_latency::.switch_cpus.data   7270499499                       # number of demand (read+write) miss cycles
system.cpu.dcache.demand_miss_latency::total   7270499499                       # number of demand (read+write) miss cycles
system.cpu.dcache.overall_miss_latency::.switch_cpus.data   7270499499                       # number of overall miss cycles
system.cpu.dcache.overall_miss_latency::total   7270499499                       # number of overall miss cycles
system.cpu.dcache.demand_accesses::.switch_cpus.data      3788189                       # number of demand (read+write) accesses
system.cpu.dcache.demand_accesses::total      3788189                       # number of demand (read+write) accesses
system.cpu.dcache.overall_accesses::.switch_cpus.data      3788357                       # number of overall (read+write) accesses
system.cpu.dcache.overall_accesses::total      3788357                       # number of overall (read+write) accesses
system.cpu.dcache.demand_miss_rate::.switch_cpus.data     0.032449                       # miss rate for demand accesses
system.cpu.dcache.demand_miss_rate::total     0.032449                       # miss rate for demand accesses
system.cpu.dcache.overall_miss_rate::.switch_cpus.data     0.032449                       # miss rate for overall accesses
system.cpu.dcache.overall_miss_rate::total     0.032449                       # miss rate for overall accesses
system.cpu.dcache.demand_avg_miss_latency::.switch_cpus.data 59147.260043                       # average overall miss latency
system.cpu.dcache.demand_avg_miss_latency::total 59147.260043                       # average overall miss latency
system.cpu.dcache.overall_avg_miss_latency::.switch_cpus.data 59143.891995                       # average overall miss latency
system.cpu.dcache.overall_avg_miss_latency::total 59143.891995                       # average overall miss latency
system.cpu.dcache.blocked_cycles::no_mshrs       201505                       # number of cycles access was blocked
system.cpu.dcache.blocked_cycles::no_targets         1524                       # number of cycles access was blocked
system.cpu.dcache.blocked::no_mshrs              2918                       # number of cycles access was blocked
system.cpu.dcache.blocked::no_targets              20                       # number of cycles access was blocked
system.cpu.dcache.avg_blocked_cycles::no_mshrs    69.055860                       # average number of cycles each access was blocked
system.cpu.dcache.avg_blocked_cycles::no_targets    76.200000                       # average number of cycles each access was blocked
system.cpu.dcache.writebacks::.writebacks        21592                       # number of writebacks
system.cpu.dcache.writebacks::total             21592                       # number of writebacks
system.cpu.dcache.demand_mshr_hits::.switch_cpus.data        80255                       # number of demand (read+write) MSHR hits
system.cpu.dcache.demand_mshr_hits::total        80255                       # number of demand (read+write) MSHR hits
system.cpu.dcache.overall_mshr_hits::.switch_cpus.data        80255                       # number of overall MSHR hits
system.cpu.dcache.overall_mshr_hits::total        80255                       # number of overall MSHR hits
system.cpu.dcache.demand_mshr_misses::.switch_cpus.data        42667                       # number of demand (read+write) MSHR misses
system.cpu.dcache.demand_mshr_misses::total        42667                       # number of demand (read+write) MSHR misses
system.cpu.dcache.overall_mshr_misses::.switch_cpus.data        42670                       # number of overall MSHR misses
system.cpu.dcache.overall_mshr_misses::total        42670                       # number of overall MSHR misses
system.cpu.dcache.demand_mshr_miss_latency::.switch_cpus.data   2555550999                       # number of demand (read+write) MSHR miss cycles
system.cpu.dcache.demand_mshr_miss_latency::total   2555550999                       # number of demand (read+write) MSHR miss cycles
system.cpu.dcache.overall_mshr_miss_latency::.switch_cpus.data   2555719999                       # number of overall MSHR miss cycles
system.cpu.dcache.overall_mshr_miss_latency::total   2555719999                       # number of overall MSHR miss cycles
system.cpu.dcache.demand_mshr_miss_rate::.switch_cpus.data     0.011263                       # mshr miss rate for demand accesses
system.cpu.dcache.demand_mshr_miss_rate::total     0.011263                       # mshr miss rate for demand accesses
system.cpu.dcache.overall_mshr_miss_rate::.switch_cpus.data     0.011263                       # mshr miss rate for overall accesses
system.cpu.dcache.overall_mshr_miss_rate::total     0.011263                       # mshr miss rate for overall accesses
system.cpu.dcache.demand_avg_mshr_miss_latency::.switch_cpus.data 59895.258607                       # average overall mshr miss latency
system.cpu.dcache.demand_avg_mshr_miss_latency::total 59895.258607                       # average overall mshr miss latency
system.cpu.dcache.overall_avg_mshr_miss_latency::.switch_cpus.data 59895.008179                       # average overall mshr miss latency
system.cpu.dcache.overall_avg_mshr_miss_latency::total 59895.008179                       # average overall mshr miss latency
system.cpu.dcache.replacements                  42534                       # number of replacements
system.cpu.dcache.ReadReq_hits::.switch_cpus.data      2457475                       # number of ReadReq hits
system.cpu.dcache.ReadReq_hits::total         2457475                       # number of ReadReq hits
system.cpu.dcache.ReadReq_misses::.switch_cpus.data       107290                       # number of ReadReq misses
system.cpu.dcache.ReadReq_misses::total        107290                       # number of ReadReq misses
system.cpu.dcache.ReadReq_miss_latency::.switch_cpus.data   6141835000                       # number of ReadReq miss cycles
system.cpu.dcache.ReadReq_miss_latency::total   6141835000                       # number of ReadReq miss cycles
system.cpu.dcache.ReadReq_accesses::.switch_cpus.data      2564765                       # number of ReadReq accesses(hits+misses)
system.cpu.dcache.ReadReq_accesses::total      2564765                       # number of ReadReq accesses(hits+misses)
system.cpu.dcache.ReadReq_miss_rate::.switch_cpus.data     0.041832                       # miss rate for ReadReq accesses
system.cpu.dcache.ReadReq_miss_rate::total     0.041832                       # miss rate for ReadReq accesses
system.cpu.dcache.ReadReq_avg_miss_latency::.switch_cpus.data 57245.176624                       # average ReadReq miss latency
system.cpu.dcache.ReadReq_avg_miss_latency::total 57245.176624                       # average ReadReq miss latency
system.cpu.dcache.ReadReq_mshr_hits::.switch_cpus.data        80227                       # number of ReadReq MSHR hits
system.cpu.dcache.ReadReq_mshr_hits::total        80227                       # number of ReadReq MSHR hits
system.cpu.dcache.ReadReq_mshr_misses::.switch_cpus.data        27063                       # number of ReadReq MSHR misses
system.cpu.dcache.ReadReq_mshr_misses::total        27063                       # number of ReadReq MSHR misses
system.cpu.dcache.ReadReq_mshr_miss_latency::.switch_cpus.data   1443842500                       # number of ReadReq MSHR miss cycles
system.cpu.dcache.ReadReq_mshr_miss_latency::total   1443842500                       # number of ReadReq MSHR miss cycles
system.cpu.dcache.ReadReq_mshr_miss_rate::.switch_cpus.data     0.010552                       # mshr miss rate for ReadReq accesses
system.cpu.dcache.ReadReq_mshr_miss_rate::total     0.010552                       # mshr miss rate for ReadReq accesses
system.cpu.dcache.ReadReq_avg_mshr_miss_latency::.switch_cpus.data 53351.162103                       # average ReadReq mshr miss latency
system.cpu.dcache.ReadReq_avg_mshr_miss_latency::total 53351.162103                       # average ReadReq mshr miss latency
system.cpu.dcache.WriteReq_hits::.switch_cpus.data      1207792                       # number of WriteReq hits
system.cpu.dcache.WriteReq_hits::total        1207792                       # number of WriteReq hits
system.cpu.dcache.WriteReq_misses::.switch_cpus.data        15632                       # number of WriteReq misses
system.cpu.dcache.WriteReq_misses::total        15632                       # number of WriteReq misses
system.cpu.dcache.WriteReq_miss_latency::.switch_cpus.data   1128664499                       # number of WriteReq miss cycles
system.cpu.dcache.WriteReq_miss_latency::total   1128664499                       # number of WriteReq miss cycles
system.cpu.dcache.WriteReq_accesses::.switch_cpus.data      1223424                       # number of WriteReq accesses(hits+misses)
system.cpu.dcache.WriteReq_accesses::total      1223424                       # number of WriteReq accesses(hits+misses)
system.cpu.dcache.WriteReq_miss_rate::.switch_cpus.data     0.012777                       # miss rate for WriteReq accesses
system.cpu.dcache.WriteReq_miss_rate::total     0.012777                       # miss rate for WriteReq accesses
system.cpu.dcache.WriteReq_avg_miss_latency::.switch_cpus.data 72202.181359                       # average WriteReq miss latency
system.cpu.dcache.WriteReq_avg_miss_latency::total 72202.181359                       # average WriteReq miss latency
system.cpu.dcache.WriteReq_mshr_hits::.switch_cpus.data           28                       # number of WriteReq MSHR hits
system.cpu.dcache.WriteReq_mshr_hits::total           28                       # number of WriteReq MSHR hits
system.cpu.dcache.WriteReq_mshr_misses::.switch_cpus.data        15604                       # number of WriteReq MSHR misses
system.cpu.dcache.WriteReq_mshr_misses::total        15604                       # number of WriteReq MSHR misses
system.cpu.dcache.WriteReq_mshr_miss_latency::.switch_cpus.data   1111708499                       # number of WriteReq MSHR miss cycles
system.cpu.dcache.WriteReq_mshr_miss_latency::total   1111708499                       # number of WriteReq MSHR miss cycles
system.cpu.dcache.WriteReq_mshr_miss_rate::.switch_cpus.data     0.012754                       # mshr miss rate for WriteReq accesses
system.cpu.dcache.WriteReq_mshr_miss_rate::total     0.012754                       # mshr miss rate for WriteReq accesses
system.cpu.dcache.WriteReq_avg_mshr_miss_latency::.switch_cpus.data 71245.097347                       # average WriteReq mshr miss latency
system.cpu.dcache.WriteReq_avg_mshr_miss_latency::total 71245.097347                       # average WriteReq mshr miss latency
system.cpu.dcache.SoftPFReq_hits::.switch_cpus.data          161                       # number of SoftPFReq hits
system.cpu.dcache.SoftPFReq_hits::total           161                       # number of SoftPFReq hits
system.cpu.dcache.SoftPFReq_misses::.switch_cpus.data            7                       # number of SoftPFReq misses
system.cpu.dcache.SoftPFReq_misses::total            7                       # number of SoftPFReq misses
system.cpu.dcache.SoftPFReq_accesses::.switch_cpus.data          168                       # number of SoftPFReq accesses(hits+misses)
system.cpu.dcache.SoftPFReq_accesses::total          168                       # number of SoftPFReq accesses(hits+misses)
system.cpu.dcache.SoftPFReq_miss_rate::.switch_cpus.data     0.041667                       # miss rate for SoftPFReq accesses
system.cpu.dcache.SoftPFReq_miss_rate::total     0.041667                       # miss rate for SoftPFReq accesses
system.cpu.dcache.SoftPFReq_mshr_misses::.switch_cpus.data            3                       # number of SoftPFReq MSHR misses
system.cpu.dcache.SoftPFReq_mshr_misses::total            3                       # number of SoftPFReq MSHR misses
system.cpu.dcache.SoftPFReq_mshr_miss_latency::.switch_cpus.data       169000                       # number of SoftPFReq MSHR miss cycles
system.cpu.dcache.SoftPFReq_mshr_miss_latency::total       169000                       # number of SoftPFReq MSHR miss cycles
system.cpu.dcache.SoftPFReq_mshr_miss_rate::.switch_cpus.data     0.017857                       # mshr miss rate for SoftPFReq accesses
system.cpu.dcache.SoftPFReq_mshr_miss_rate::total     0.017857                       # mshr miss rate for SoftPFReq accesses
system.cpu.dcache.SoftPFReq_avg_mshr_miss_latency::.switch_cpus.data 56333.333333                       # average SoftPFReq mshr miss latency
system.cpu.dcache.SoftPFReq_avg_mshr_miss_latency::total 56333.333333                       # average SoftPFReq mshr miss latency
system.cpu.dcache.power_state.pwrStateResidencyTicks::UNDEFINED   6101249000                       # Cumulative time (in ticks) in various power states
system.cpu.dcache.tags.tagsinuse                 1024                       # Cycle average of tags in use
system.cpu.dcache.tags.total_refs             3910318                       # Total number of references to valid blocks.
system.cpu.dcache.tags.sampled_refs             43558                       # Sample count of references to valid blocks.
system.cpu.dcache.tags.avg_refs             89.772671                       # Average number of references to valid blocks.
system.cpu.dcache.tags.warmup_cycle                 0                       # Cycle when the warmup percentage was hit.
system.cpu.dcache.tags.occ_blocks::.cpu.data    17.848263                       # Average occupied blocks per requestor
system.cpu.dcache.tags.occ_blocks::.switch_cpus.data  1006.151737                       # Average occupied blocks per requestor
system.cpu.dcache.tags.occ_percent::.cpu.data     0.017430                       # Average percentage of cache occupancy
system.cpu.dcache.tags.occ_percent::.switch_cpus.data     0.982570                       # Average percentage of cache occupancy
system.cpu.dcache.tags.occ_percent::total            1                       # Average percentage of cache occupancy
system.cpu.dcache.tags.occ_task_id_blocks::1024         1024                       # Occupied blocks per task id
system.cpu.dcache.tags.age_task_id_blocks_1024::0           93                       # Occupied blocks per task id
system.cpu.dcache.tags.age_task_id_blocks_1024::1          595                       # Occupied blocks per task id
system.cpu.dcache.tags.age_task_id_blocks_1024::2          325                       # Occupied blocks per task id
system.cpu.dcache.tags.age_task_id_blocks_1024::3           11                       # Occupied blocks per task id
system.cpu.dcache.tags.occ_task_id_percent::1024            1                       # Percentage of cache occupancy per task id
system.cpu.dcache.tags.tag_accesses           7619248                       # Number of tag accesses
system.cpu.dcache.tags.data_accesses          7619248                       # Number of data accesses
system.cpu.dcache.tags.power_state.pwrStateResidencyTicks::UNDEFINED   6101249000                       # Cumulative time (in ticks) in various power states
system.cpu.dtb.rdAccesses                           0                       # TLB accesses on read requests
system.cpu.dtb.wrAccesses                           0                       # TLB accesses on write requests
system.cpu.dtb.rdMisses                             0                       # TLB misses on read requests
system.cpu.dtb.wrMisses                             0                       # TLB misses on write requests
system.cpu.dtb.walker.power_state.pwrStateResidencyTicks::UNDEFINED   6101249000                       # Cumulative time (in ticks) in various power states
system.cpu.dtb_walker_cache.blocked_cycles::no_mshrs            0                       # number of cycles access was blocked
system.cpu.dtb_walker_cache.blocked_cycles::no_targets            0                       # number of cycles access was blocked
system.cpu.dtb_walker_cache.blocked::no_mshrs            0                       # number of cycles access was blocked
system.cpu.dtb_walker_cache.blocked::no_targets            0                       # number of cycles access was blocked
system.cpu.dtb_walker_cache.avg_blocked_cycles::no_mshrs          nan                       # average number of cycles each access was blocked
system.cpu.dtb_walker_cache.avg_blocked_cycles::no_targets          nan                       # average number of cycles each access was blocked
system.cpu.dtb_walker_cache.replacements            0                       # number of replacements
system.cpu.dtb_walker_cache.power_state.pwrStateResidencyTicks::UNDEFINED   6101249000                       # Cumulative time (in ticks) in various power states
system.cpu.dtb_walker_cache.tags.tagsinuse            0                       # Cycle average of tags in use
system.cpu.dtb_walker_cache.tags.total_refs            0                       # Total number of references to valid blocks.
system.cpu.dtb_walker_cache.tags.sampled_refs            0                       # Sample count of references to valid blocks.
system.cpu.dtb_walker_cache.tags.avg_refs          nan                       # Average number of references to valid blocks.
system.cpu.dtb_walker_cache.tags.warmup_cycle            0                       # Cycle when the warmup percentage was hit.
system.cpu.dtb_walker_cache.tags.tag_accesses            0                       # Number of tag accesses
system.cpu.dtb_walker_cache.tags.data_accesses            0                       # Number of data accesses
system.cpu.dtb_walker_cache.tags.power_state.pwrStateResidencyTicks::UNDEFINED   6101249000                       # Cumulative time (in ticks) in various power states
system.cpu.icache.demand_hits::.switch_cpus.inst      1711218                       # number of demand (read+write) hits
system.cpu.icache.demand_hits::total          1711218                       # number of demand (read+write) hits
system.cpu.icache.overall_hits::.switch_cpus.inst      1711218                       # number of overall hits
system.cpu.icache.overall_hits::total         1711218                       # number of overall hits
system.cpu.icache.demand_misses::.switch_cpus.inst        65762                       # number of demand (read+write) misses
system.cpu.icache.demand_misses::total          65762                       # number of demand (read+write) misses
system.cpu.icache.overall_misses::.switch_cpus.inst        65762                       # number of overall misses
system.cpu.icache.overall_misses::total         65762                       # number of overall misses
system.cpu.icache.demand_miss_latency::.switch_cpus.inst   1467202498                       # number of demand (read+write) miss cycles
system.cpu.icache.demand_miss_latency::total   1467202498                       # number of demand (read+write) miss cycles
system.cpu.icache.overall_miss_latency::.switch_cpus.inst   1467202498                       # number of overall miss cycles
system.cpu.icache.overall_miss_latency::total   1467202498                       # number of overall miss cycles
system.cpu.icache.demand_accesses::.switch_cpus.inst      1776980                       # number of demand (read+write) accesses
system.cpu.icache.demand_accesses::total      1776980                       # number of demand (read+write) accesses
system.cpu.icache.overall_accesses::.switch_cpus.inst      1776980                       # number of overall (read+write) accesses
system.cpu.icache.overall_accesses::total      1776980                       # number of overall (read+write) accesses
system.cpu.icache.demand_miss_rate::.switch_cpus.inst     0.037008                       # miss rate for demand accesses
system.cpu.icache.demand_miss_rate::total     0.037008                       # miss rate for demand accesses
system.cpu.icache.overall_miss_rate::.switch_cpus.inst     0.037008                       # miss rate for overall accesses
system.cpu.icache.overall_miss_rate::total     0.037008                       # miss rate for overall accesses
system.cpu.icache.demand_avg_miss_latency::.switch_cpus.inst 22310.794958                       # average overall miss latency
system.cpu.icache.demand_avg_miss_latency::total 22310.794958                       # average overall miss latency
system.cpu.icache.overall_avg_miss_latency::.switch_cpus.inst 22310.794958                       # average overall miss latency
system.cpu.icache.overall_avg_miss_latency::total 22310.794958                       # average overall miss latency
system.cpu.icache.blocked_cycles::no_mshrs         2361                       # number of cycles access was blocked
system.cpu.icache.blocked_cycles::no_targets            0                       # number of cycles access was blocked
system.cpu.icache.blocked::no_mshrs                46                       # number of cycles access was blocked
system.cpu.icache.blocked::no_targets               0                       # number of cycles access was blocked
system.cpu.icache.avg_blocked_cycles::no_mshrs    51.326087                       # average number of cycles each access was blocked
system.cpu.icache.avg_blocked_cycles::no_targets          nan                       # average number of cycles each access was blocked
system.cpu.icache.writebacks::.writebacks        60090                       # number of writebacks
system.cpu.icache.writebacks::total             60090                       # number of writebacks
system.cpu.icache.demand_mshr_hits::.switch_cpus.inst         5202                       # number of demand (read+write) MSHR hits
system.cpu.icache.demand_mshr_hits::total         5202                       # number of demand (read+write) MSHR hits
system.cpu.icache.overall_mshr_hits::.switch_cpus.inst         5202                       # number of overall MSHR hits
system.cpu.icache.overall_mshr_hits::total         5202                       # number of overall MSHR hits
system.cpu.icache.demand_mshr_misses::.switch_cpus.inst        60560                       # number of demand (read+write) MSHR misses
system.cpu.icache.demand_mshr_misses::total        60560                       # number of demand (read+write) MSHR misses
system.cpu.icache.overall_mshr_misses::.switch_cpus.inst        60560                       # number of overall MSHR misses
system.cpu.icache.overall_mshr_misses::total        60560                       # number of overall MSHR misses
system.cpu.icache.demand_mshr_miss_latency::.switch_cpus.inst   1208295999                       # number of demand (read+write) MSHR miss cycles
system.cpu.icache.demand_mshr_miss_latency::total   1208295999                       # number of demand (read+write) MSHR miss cycles
system.cpu.icache.overall_mshr_miss_latency::.switch_cpus.inst   1208295999                       # number of overall MSHR miss cycles
system.cpu.icache.overall_mshr_miss_latency::total   1208295999                       # number of overall MSHR miss cycles
system.cpu.icache.demand_mshr_miss_rate::.switch_cpus.inst     0.034080                       # mshr miss rate for demand accesses
system.cpu.icache.demand_mshr_miss_rate::total     0.034080                       # mshr miss rate for demand accesses
system.cpu.icache.overall_mshr_miss_rate::.switch_cpus.inst     0.034080                       # mshr miss rate for overall accesses
system.cpu.icache.overall_mshr_miss_rate::total     0.034080                       # mshr miss rate for overall accesses
system.cpu.icache.demand_avg_mshr_miss_latency::.switch_cpus.inst 19952.047540                       # average overall mshr miss latency
system.cpu.icache.demand_avg_mshr_miss_latency::total 19952.047540                       # average overall mshr miss latency
system.cpu.icache.overall_avg_mshr_miss_latency::.switch_cpus.inst 19952.047540                       # average overall mshr miss latency
system.cpu.icache.overall_avg_mshr_miss_latency::total 19952.047540                       # average overall mshr miss latency
system.cpu.icache.replacements                  60090                       # number of replacements
system.cpu.icache.ReadReq_hits::.switch_cpus.inst      1711218                       # number of ReadReq hits
system.cpu.icache.ReadReq_hits::total         1711218                       # number of ReadReq hits
system.cpu.icache.ReadReq_misses::.switch_cpus.inst        65762                       # number of ReadReq misses
system.cpu.icache.ReadReq_misses::total         65762                       # number of ReadReq misses
system.cpu.icache.ReadReq_miss_latency::.switch_cpus.inst   1467202498                       # number of ReadReq miss cycles
system.cpu.icache.ReadReq_miss_latency::total   1467202498                       # number of ReadReq miss cycles
system.cpu.icache.ReadReq_accesses::.switch_cpus.inst      1776980                       # number of ReadReq accesses(hits+misses)
system.cpu.icache.ReadReq_accesses::total      1776980                       # number of ReadReq accesses(hits+misses)
system.cpu.icache.ReadReq_miss_rate::.switch_cpus.inst     0.037008                       # miss rate for ReadReq accesses
system.cpu.icache.ReadReq_miss_rate::total     0.037008                       # miss rate for ReadReq accesses
system.cpu.icache.ReadReq_avg_miss_latency::.switch_cpus.inst 22310.794958                       # average ReadReq miss latency
system.cpu.icache.ReadReq_avg_miss_latency::total 22310.794958                       # average ReadReq miss latency
system.cpu.icache.ReadReq_mshr_hits::.switch_cpus.inst         5202                       # number of ReadReq MSHR hits
system.cpu.icache.ReadReq_mshr_hits::total         5202                       # number of ReadReq MSHR hits
system.cpu.icache.ReadReq_mshr_misses::.switch_cpus.inst        60560                       # number of ReadReq MSHR misses
system.cpu.icache.ReadReq_mshr_misses::total        60560                       # number of ReadReq MSHR misses
system.cpu.icache.ReadReq_mshr_miss_latency::.switch_cpus.inst   1208295999                       # number of ReadReq MSHR miss cycles
system.cpu.icache.ReadReq_mshr_miss_latency::total   1208295999                       # number of ReadReq MSHR miss cycles
system.cpu.icache.ReadReq_mshr_miss_rate::.switch_cpus.inst     0.034080                       # mshr miss rate for ReadReq accesses
system.cpu.icache.ReadReq_mshr_miss_rate::total     0.034080                       # mshr miss rate for ReadReq accesses
system.cpu.icache.ReadReq_avg_mshr_miss_latency::.switch_cpus.inst 19952.047540                       # average ReadReq mshr miss latency
system.cpu.icache.ReadReq_avg_mshr_miss_latency::total 19952.047540                       # average ReadReq mshr miss latency
system.cpu.icache.power_state.pwrStateResidencyTicks::UNDEFINED   6101249000                       # Cumulative time (in ticks) in various power states
system.cpu.icache.tags.tagsinuse           954.784080                       # Cycle average of tags in use
system.cpu.icache.tags.total_refs             3106551                       # Total number of references to valid blocks.
system.cpu.icache.tags.sampled_refs             61230                       # Sample count of references to valid blocks.
system.cpu.icache.tags.avg_refs             50.735767                       # Average number of references to valid blocks.
system.cpu.icache.tags.warmup_cycle                 0                       # Cycle when the warmup percentage was hit.
system.cpu.icache.tags.occ_blocks::.cpu.inst   143.801996                       # Average occupied blocks per requestor
system.cpu.icache.tags.occ_blocks::.switch_cpus.inst   810.982084                       # Average occupied blocks per requestor
system.cpu.icache.tags.occ_percent::.cpu.inst     0.140432                       # Average percentage of cache occupancy
system.cpu.icache.tags.occ_percent::.switch_cpus.inst     0.791975                       # Average percentage of cache occupancy
system.cpu.icache.tags.occ_percent::total     0.932406                       # Average percentage of cache occupancy
system.cpu.icache.tags.occ_task_id_blocks::1024         1008                       # Occupied blocks per task id
system.cpu.icache.tags.age_task_id_blocks_1024::0           96                       # Occupied blocks per task id
system.cpu.icache.tags.age_task_id_blocks_1024::1          239                       # Occupied blocks per task id
system.cpu.icache.tags.age_task_id_blocks_1024::2          615                       # Occupied blocks per task id
system.cpu.icache.tags.age_task_id_blocks_1024::3           58                       # Occupied blocks per task id
system.cpu.icache.tags.occ_task_id_percent::1024     0.984375                       # Percentage of cache occupancy per task id
system.cpu.icache.tags.tag_accesses           3614520                       # Number of tag accesses
system.cpu.icache.tags.data_accesses          3614520                       # Number of data accesses
system.cpu.icache.tags.power_state.pwrStateResidencyTicks::UNDEFINED   6101249000                       # Cumulative time (in ticks) in various power states
system.cpu.interrupts.clk_domain.clock           8000                       # Clock period in ticks
system.cpu.itb.rdAccesses                           0                       # TLB accesses on read requests
system.cpu.itb.wrAccesses                           0                       # TLB accesses on write requests
system.cpu.itb.rdMisses                             0                       # TLB misses on read requests
system.cpu.itb.wrMisses                             0                       # TLB misses on write requests
system.cpu.itb.walker.power_state.pwrStateResidencyTicks::UNDEFINED   6101249000                       # Cumulative time (in ticks) in various power states
system.cpu.itb_walker_cache.blocked_cycles::no_mshrs            0                       # number of cycles access was blocked
system.cpu.itb_walker_cache.blocked_cycles::no_targets            0                       # number of cycles access was blocked
system.cpu.itb_walker_cache.blocked::no_mshrs            0                       # number of cycles access was blocked
system.cpu.itb_walker_cache.blocked::no_targets            0                       # number of cycles access was blocked
system.cpu.itb_walker_cache.avg_blocked_cycles::no_mshrs          nan                       # average number of cycles each access was blocked
system.cpu.itb_walker_cache.avg_blocked_cycles::no_targets          nan                       # average number of cycles each access was blocked
system.cpu.itb_walker_cache.replacements            0                       # number of replacements
system.cpu.itb_walker_cache.power_state.pwrStateResidencyTicks::UNDEFINED   6101249000                       # Cumulative time (in ticks) in various power states
system.cpu.itb_walker_cache.tags.tagsinuse            0                       # Cycle average of tags in use
system.cpu.itb_walker_cache.tags.total_refs            0                       # Total number of references to valid blocks.
system.cpu.itb_walker_cache.tags.sampled_refs            0                       # Sample count of references to valid blocks.
system.cpu.itb_walker_cache.tags.avg_refs          nan                       # Average number of references to valid blocks.
system.cpu.itb_walker_cache.tags.warmup_cycle            0                       # Cycle when the warmup percentage was hit.
system.cpu.itb_walker_cache.tags.tag_accesses            0                       # Number of tag accesses
system.cpu.itb_walker_cache.tags.data_accesses            0                       # Number of data accesses
system.cpu.itb_walker_cache.tags.power_state.pwrStateResidencyTicks::UNDEFINED   6101249000                       # Cumulative time (in ticks) in various power states
system.cpu.power_state.pwrStateResidencyTicks::OFF   5050886000                       # Cumulative time (in ticks) in various power states
system.cpu.thread_0.numInsts                        0                       # Number of Instructions committed
system.cpu.thread_0.numOps                          0                       # Number of Ops committed
system.cpu.thread_0.numMemRefs                      0                       # Number of Memory References
system.cpu_clk_domain.clock                       500                       # Clock period in ticks
system.cpu_voltage_domain.voltage                   1                       # Voltage in Volts
system.l2.demand_hits::.switch_cpus.inst        53791                       # number of demand (read+write) hits
system.l2.demand_hits::.switch_cpus.data        13604                       # number of demand (read+write) hits
system.l2.demand_hits::total                    67395                       # number of demand (read+write) hits
system.l2.overall_hits::.switch_cpus.inst        53791                       # number of overall hits
system.l2.overall_hits::.switch_cpus.data        13604                       # number of overall hits
system.l2.overall_hits::total                   67395                       # number of overall hits
system.l2.demand_misses::.switch_cpus.inst         6556                       # number of demand (read+write) misses
system.l2.demand_misses::.switch_cpus.data        28930                       # number of demand (read+write) misses
system.l2.demand_misses::total                  35486                       # number of demand (read+write) misses
system.l2.overall_misses::.switch_cpus.inst         6556                       # number of overall misses
system.l2.overall_misses::.switch_cpus.data        28930                       # number of overall misses
system.l2.overall_misses::total                 35486                       # number of overall misses
system.l2.demand_miss_latency::.switch_cpus.inst    549661000                       # number of demand (read+write) miss cycles
system.l2.demand_miss_latency::.switch_cpus.data   2345054500                       # number of demand (read+write) miss cycles
system.l2.demand_miss_latency::total       2894715500                       # number of demand (read+write) miss cycles
system.l2.overall_miss_latency::.switch_cpus.inst    549661000                       # number of overall miss cycles
system.l2.overall_miss_latency::.switch_cpus.data   2345054500                       # number of overall miss cycles
system.l2.overall_miss_latency::total      2894715500                       # number of overall miss cycles
system.l2.demand_accesses::.switch_cpus.inst        60347                       # number of demand (read+write) accesses
system.l2.demand_accesses::.switch_cpus.data        42534                       # number of demand (read+write) accesses
system.l2.demand_accesses::total               102881                       # number of demand (read+write) accesses
system.l2.overall_accesses::.switch_cpus.inst        60347                       # number of overall (read+write) accesses
system.l2.overall_accesses::.switch_cpus.data        42534                       # number of overall (read+write) accesses
system.l2.overall_accesses::total              102881                       # number of overall (read+write) accesses
system.l2.demand_miss_rate::.switch_cpus.inst     0.108638                       # miss rate for demand accesses
system.l2.demand_miss_rate::.switch_cpus.data     0.680162                       # miss rate for demand accesses
system.l2.demand_miss_rate::total            0.344923                       # miss rate for demand accesses
system.l2.overall_miss_rate::.switch_cpus.inst     0.108638                       # miss rate for overall accesses
system.l2.overall_miss_rate::.switch_cpus.data     0.680162                       # miss rate for overall accesses
system.l2.overall_miss_rate::total           0.344923                       # miss rate for overall accesses
system.l2.demand_avg_miss_latency::.switch_cpus.inst 83840.909091                       # average overall miss latency
system.l2.demand_avg_miss_latency::.switch_cpus.data 81059.609402                       # average overall miss latency
system.l2.demand_avg_miss_latency::total 81573.451502                       # average overall miss latency
system.l2.overall_avg_miss_latency::.switch_cpus.inst 83840.909091                       # average overall miss latency
system.l2.overall_avg_miss_latency::.switch_cpus.data 81059.609402                       # average overall miss latency
system.l2.overall_avg_miss_latency::total 81573.451502                       # average overall miss latency
system.l2.blocked_cycles::no_mshrs                  0                       # number of cycles access was blocked
system.l2.blocked_cycles::no_targets                0                       # number of cycles access was blocked
system.l2.blocked::no_mshrs                         0                       # number of cycles access was blocked
system.l2.blocked::no_targets                       0                       # number of cycles access was blocked
system.l2.avg_blocked_cycles::no_mshrs            nan                       # average number of cycles each access was blocked
system.l2.avg_blocked_cycles::no_targets          nan                       # average number of cycles each access was blocked
system.l2.writebacks::.writebacks               11592                       # number of writebacks
system.l2.writebacks::total                     11592                       # number of writebacks
system.l2.demand_mshr_hits::.switch_cpus.inst            1                       # number of demand (read+write) MSHR hits
system.l2.demand_mshr_hits::total                   1                       # number of demand (read+write) MSHR hits
system.l2.overall_mshr_hits::.switch_cpus.inst            1                       # number of overall MSHR hits
system.l2.overall_mshr_hits::total                  1                       # number of overall MSHR hits
system.l2.demand_mshr_misses::.switch_cpus.inst         6555                       # number of demand (read+write) MSHR misses
system.l2.demand_mshr_misses::.switch_cpus.data        28930                       # number of demand (read+write) MSHR misses
system.l2.demand_mshr_misses::total             35485                       # number of demand (read+write) MSHR misses
system.l2.overall_mshr_misses::.switch_cpus.inst         6555                       # number of overall MSHR misses
system.l2.overall_mshr_misses::.switch_cpus.data        28930                       # number of overall MSHR misses
system.l2.overall_mshr_misses::total            35485                       # number of overall MSHR misses
system.l2.demand_mshr_miss_latency::.switch_cpus.inst    484036500                       # number of demand (read+write) MSHR miss cycles
system.l2.demand_mshr_miss_latency::.switch_cpus.data   2055754500                       # number of demand (read+write) MSHR miss cycles
system.l2.demand_mshr_miss_latency::total   2539791000                       # number of demand (read+write) MSHR miss cycles
system.l2.overall_mshr_miss_latency::.switch_cpus.inst    484036500                       # number of overall MSHR miss cycles
system.l2.overall_mshr_miss_latency::.switch_cpus.data   2055754500                       # number of overall MSHR miss cycles
system.l2.overall_mshr_miss_latency::total   2539791000                       # number of overall MSHR miss cycles
system.l2.demand_mshr_miss_rate::.switch_cpus.inst     0.108622                       # mshr miss rate for demand accesses
system.l2.demand_mshr_miss_rate::.switch_cpus.data     0.680162                       # mshr miss rate for demand accesses
system.l2.demand_mshr_miss_rate::total       0.344913                       # mshr miss rate for demand accesses
system.l2.overall_mshr_miss_rate::.switch_cpus.inst     0.108622                       # mshr miss rate for overall accesses
system.l2.overall_mshr_miss_rate::.switch_cpus.data     0.680162                       # mshr miss rate for overall accesses
system.l2.overall_mshr_miss_rate::total      0.344913                       # mshr miss rate for overall accesses
system.l2.demand_avg_mshr_miss_latency::.switch_cpus.inst 73842.334096                       # average overall mshr miss latency
system.l2.demand_avg_mshr_miss_latency::.switch_cpus.data 71059.609402                       # average overall mshr miss latency
system.l2.demand_avg_mshr_miss_latency::total 71573.650838                       # average overall mshr miss latency
system.l2.overall_avg_mshr_miss_latency::.switch_cpus.inst 73842.334096                       # average overall mshr miss latency
system.l2.overall_avg_mshr_miss_latency::.switch_cpus.data 71059.609402                       # average overall mshr miss latency
system.l2.overall_avg_mshr_miss_latency::total 71573.650838                       # average overall mshr miss latency
system.l2.replacements                          35351                       # number of replacements
system.l2.WritebackDirty_hits::.writebacks        21592                       # number of WritebackDirty hits
system.l2.WritebackDirty_hits::total            21592                       # number of WritebackDirty hits
system.l2.WritebackDirty_accesses::.writebacks        21592                       # number of WritebackDirty accesses(hits+misses)
system.l2.WritebackDirty_accesses::total        21592                       # number of WritebackDirty accesses(hits+misses)
system.l2.WritebackClean_hits::.writebacks        59969                       # number of WritebackClean hits
system.l2.WritebackClean_hits::total            59969                       # number of WritebackClean hits
system.l2.WritebackClean_accesses::.writebacks        59969                       # number of WritebackClean accesses(hits+misses)
system.l2.WritebackClean_accesses::total        59969                       # number of WritebackClean accesses(hits+misses)
system.l2.CleanEvict_mshr_misses::.writebacks           43                       # number of CleanEvict MSHR misses
system.l2.CleanEvict_mshr_misses::total            43                       # number of CleanEvict MSHR misses
system.l2.CleanEvict_mshr_miss_rate::.writebacks          inf                       # mshr miss rate for CleanEvict accesses
system.l2.CleanEvict_mshr_miss_rate::total          inf                       # mshr miss rate for CleanEvict accesses
system.l2.UpgradeReq_hits::.switch_cpus.data          118                       # number of UpgradeReq hits
[...]
system.switch_cpus.commit.committedInstType_0::SimdCmp           60      0.00%     79.45% # Class of committed instruction
system.switch_cpus.commit.committedInstType_0::SimdCvt        10190      0.05%     79.51% # Class of committed instruction
system.switch_cpus.commit.committedInstType_0::SimdMisc        14930      0.08%     79.59% # Class of committed instruction
system.switch_cpus.commit.committedInstType_0::SimdMult            0      0.00%     79.59% # Class of committed instruction
system.switch_cpus.commit.committedInstType_0::SimdMultAcc            0      0.00%     79.59% # Class of committed instruction
system.switch_cpus.commit.committedInstType_0::SimdShift         1042      0.01%     79.59% # Class of committed instruction
system.switch_cpus.commit.committedInstType_0::SimdShiftAcc            0      0.00%     79.59% # Class of committed instruction
system.switch_cpus.commit.committedInstType_0::SimdDiv            0      0.00%     79.59% # Class of committed instruction
system.switch_cpus.commit.committedInstType_0::SimdSqrt            0      0.00%     79.59% # Class of committed instruction
system.switch_cpus.commit.committedInstType_0::SimdFloatAdd            5      0.00%     79.59% # Class of committed instruction
system.switch_cpus.commit.committedInstType_0::SimdFloatAlu            0      0.00%     79.59% # Class of committed instruction
system.switch_cpus.commit.committedInstType_0::SimdFloatCmp            0      0.00%     79.59% # Class of committed instruction
system.switch_cpus.commit.committedInstType_0::SimdFloatCvt          178      0.00%     79.59% # Class of committed instruction
system.switch_cpus.commit.committedInstType_0::SimdFloatDiv            1      0.00%     79.59% # Class of committed instruction
system.switch_cpus.commit.committedInstType_0::SimdFloatMisc            0      0.00%     79.59% # Class of committed instruction
system.switch_cpus.commit.committedInstType_0::SimdFloatMult           62      0.00%     79.59% # Class of committed instruction
system.switch_cpus.commit.committedInstType_0::SimdFloatMultAcc            0      0.00%     79.59% # Class of committed instruction
system.switch_cpus.commit.committedInstType_0::SimdFloatSqrt            1      0.00%     79.59% # Class of committed instruction
system.switch_cpus.commit.committedInstType_0::SimdReduceAdd            0      0.00%     79.59% # Class of committed instruction
system.switch_cpus.commit.committedInstType_0::SimdReduceAlu            0      0.00%     79.59% # Class of committed instruction
system.switch_cpus.commit.committedInstType_0::SimdReduceCmp            0      0.00%     79.59% # Class of committed instruction
system.switch_cpus.commit.committedInstType_0::SimdFloatReduceAdd            0      0.00%     79.59% # Class of committed instruction
system.switch_cpus.commit.committedInstType_0::SimdFloatReduceCmp            0      0.00%     79.59% # Class of committed instruction
system.switch_cpus.commit.committedInstType_0::SimdAes            0      0.00%     79.59% # Class of committed instruction
system.switch_cpus.commit.committedInstType_0::SimdAesMix            0      0.00%     79.59% # Class of committed instruction
system.switch_cpus.commit.committedInstType_0::SimdSha1Hash            0      0.00%     79.59% # Class of committed instruction
system.switch_cpus.commit.committedInstType_0::SimdSha1Hash2            0      0.00%     79.59% # Class of committed instruction
system.switch_cpus.commit.committedInstType_0::SimdSha256Hash            0      0.00%     79.59% # Class of committed instruction
system.switch_cpus.commit.committedInstType_0::SimdSha256Hash2            0      0.00%     79.59% # Class of committed instruction
system.switch_cpus.commit.committedInstType_0::SimdShaSigma2            0      0.00%     79.59% # Class of committed instruction
system.switch_cpus.commit.committedInstType_0::SimdShaSigma3            0      0.00%     79.59% # Class of committed instruction
system.switch_cpus.commit.committedInstType_0::SimdPredAlu            0      0.00%     79.59% # Class of committed instruction
system.switch_cpus.commit.committedInstType_0::MemRead      2584754     13.74%     93.33% # Class of committed instruction
system.switch_cpus.commit.committedInstType_0::MemWrite      1160959      6.17%     99.50% # Class of committed instruction
system.switch_cpus.commit.committedInstType_0::FloatMemRead        32628      0.17%     99.67% # Class of committed instruction
system.switch_cpus.commit.committedInstType_0::FloatMemWrite        61595      0.33%    100.00% # Class of committed instruction
system.switch_cpus.commit.committedInstType_0::IprAccess            0      0.00%    100.00% # Class of committed instruction
system.switch_cpus.commit.committedInstType_0::InstPrefetch            0      0.00%    100.00% # Class of committed instruction
system.switch_cpus.commit.committedInstType_0::total     18817440                       # Class of committed instruction
system.switch_cpus.commit.commitEligibleSamples      1161747                       # number cycles where commit BW limit reached
system.switch_cpus.decode.idleCycles          2981813                       # Number of cycles decode is idle
system.switch_cpus.decode.blockedCycles       2967620                       # Number of cycles decode is blocked
system.switch_cpus.decode.runCycles           3270972                       # Number of cycles decode is running
system.switch_cpus.decode.unblockCycles        304010                       # Number of cycles decode is unblocking
system.switch_cpus.decode.squashCycles          82328                       # Number of cycles decode is squashing
system.switch_cpus.decode.branchResolved      1223547                       # Number of times decode resolved a  branch
system.switch_cpus.decode.branchMispred         13891                       # Number of times decode detected a branch misprediction
system.switch_cpus.decode.decodedInsts       23085555                       # Number of instructions handled by decode
system.switch_cpus.decode.squashedInsts         74418                       # Number of squashed instructions handled by decode
system.switch_cpus.dtb.rdAccesses             2932988                       # TLB accesses on read requests
system.switch_cpus.dtb.wrAccesses             1312396                       # TLB accesses on write requests
system.switch_cpus.dtb.rdMisses                  3708                       # TLB misses on read requests
system.switch_cpus.dtb.wrMisses                  1368                       # TLB misses on write requests
system.switch_cpus.dtb.walker.power_state.pwrStateResidencyTicks::UNDEFINED   6101249000                       # Cumulative time (in ticks) in various power states
system.switch_cpus.fetch.icacheStallCycles      3146928                       # Number of cycles fetch is stalled on an Icache miss
system.switch_cpus.fetch.insts               12576524                       # Number of instructions fetch has processed
system.switch_cpus.fetch.branches             2711000                       # Number of branches that fetch encountered
system.switch_cpus.fetch.predictedBranches      1553882                       # Number of branches that fetch has predicted taken
system.switch_cpus.fetch.cycles               6351801                       # Number of cycles fetch has run and was not squashing or blocked
system.switch_cpus.fetch.squashCycles          191728                       # Number of cycles fetch has spent squashing
system.switch_cpus.fetch.miscStallCycles         1512                       # Number of cycles fetch has spent waiting on interrupts,or bad addresses, or out of MSHRs
system.switch_cpus.fetch.pendingTrapStallCycles        10217                       # Number of stall cycles due to pending traps
system.switch_cpus.fetch.pendingQuiesceStallCycles           26                       # Number of stall cycles due to pending quiesce instructions
system.switch_cpus.fetch.icacheWaitRetryStallCycles          397                       # Number of stall cycles due to full MSHR
system.switch_cpus.fetch.cacheLines           1776981                       # Number of cache lines fetched
system.switch_cpus.fetch.icacheSquashes         35084                       # Number of outstanding Icache misses that were squashed
system.switch_cpus.fetch.nisnDist::samples      9606745                       # Number of instructions fetched each cycle (Total)
system.switch_cpus.fetch.nisnDist::mean      2.480966                       # Number of instructions fetched each cycle (Total)
system.switch_cpus.fetch.nisnDist::stdev     3.369847                       # Number of instructions fetched each cycle (Total)
system.switch_cpus.fetch.nisnDist::underflows            0      0.00%      0.00% # Number of instructions fetched each cycle (Total)
system.switch_cpus.fetch.nisnDist::0          5710357     59.44%     59.44% # Number of instructions fetched each cycle (Total)
system.switch_cpus.fetch.nisnDist::1           310781      3.24%     62.68% # Number of instructions fetched each cycle (Total)
system.switch_cpus.fetch.nisnDist::2           176216      1.83%     64.51% # Number of instructions fetched each cycle (Total)
system.switch_cpus.fetch.nisnDist::3           224684      2.34%     66.85% # Number of instructions fetched each cycle (Total)
system.switch_cpus.fetch.nisnDist::4           293956      3.06%     69.91% # Number of instructions fetched each cycle (Total)
system.switch_cpus.fetch.nisnDist::5           339745      3.54%     73.45% # Number of instructions fetched each cycle (Total)
system.switch_cpus.fetch.nisnDist::6           256500      2.67%     76.12% # Number of instructions fetched each cycle (Total)
system.switch_cpus.fetch.nisnDist::7           272857      2.84%     78.96% # Number of instructions fetched each cycle (Total)
system.switch_cpus.fetch.nisnDist::8          2021649     21.04%    100.00% # Number of instructions fetched each cycle (Total)
system.switch_cpus.fetch.nisnDist::overflows            0      0.00%    100.00% # Number of instructions fetched each cycle (Total)
system.switch_cpus.fetch.nisnDist::min_value            0                       # Number of instructions fetched each cycle (Total)
system.switch_cpus.fetch.nisnDist::max_value            8                       # Number of instructions fetched each cycle (Total)
system.switch_cpus.fetch.nisnDist::total      9606745                       # Number of instructions fetched each cycle (Total)
system.switch_cpus.fetch.branchRate          0.268369                       # Number of branch fetches per cycle
system.switch_cpus.fetch.rate                1.244982                       # Number of inst fetches per cycle
system.switch_cpus.itb.rdAccesses                   0                       # TLB accesses on read requests
system.switch_cpus.itb.wrAccesses             1778564                       # TLB accesses on write requests
system.switch_cpus.itb.rdMisses                     0                       # TLB misses on read requests
system.switch_cpus.itb.wrMisses                 22370                       # TLB misses on write requests
system.switch_cpus.itb.walker.power_state.pwrStateResidencyTicks::UNDEFINED   6101249000                       # Cumulative time (in ticks) in various power states
system.switch_cpus.lsq0.forwLoads              365997                       # Number of loads that had data forwarded from stores
system.switch_cpus.lsq0.squashedLoads          487479                       # Number of loads squashed
system.switch_cpus.lsq0.ignoredResponses         1165                       # Number of memory responses ignored because the instruction is squashed
system.switch_cpus.lsq0.memOrderViolation          586                       # Number of memory ordering violations
system.switch_cpus.lsq0.squashedStores         152700                       # Number of stores squashed
system.switch_cpus.lsq0.rescheduledLoads          186                       # Number of loads that were rescheduled
system.switch_cpus.lsq0.blockedByCache           2336                       # Number of times an access to memory failed due to the cache being blocked
system.switch_cpus.power_state.pwrStateResidencyTicks::OFF   6101249000                       # Cumulative time (in ticks) in various power states
system.switch_cpus.rename.squashCycles          82328                       # Number of cycles rename is squashing
system.switch_cpus.rename.idleCycles          3127531                       # Number of cycles rename is idle
system.switch_cpus.rename.blockCycles         1667065                       # Number of cycles rename is blocking
system.switch_cpus.rename.serializeStallCycles        10337                       # count of cycles rename stalledfor serializing inst
system.switch_cpus.rename.runCycles           3409489                       # Number of cycles rename is running
system.switch_cpus.rename.unblockCycles       1309973                       # Number of cycles rename is unblocking
system.switch_cpus.rename.renamedInsts       22757106                       # Number of instructions processed by rename
system.switch_cpus.rename.ROBFullEvents         11894                       # Number of times rename has blocked due to ROB full
system.switch_cpus.rename.IQFullEvents         364669                       # Number of times rename has blocked due to IQ full
system.switch_cpus.rename.LQFullEvents          36281                       # Number of times rename has blocked due to LQ full
system.switch_cpus.rename.SQFullEvents         884250                       # Number of times rename has blocked due to SQ full
system.switch_cpus.rename.fullRegistersEvents           16                       # Number of times there has been no free registers
system.switch_cpus.rename.renamedOperands     26780704                       # Number of destination operands rename has renamed
system.switch_cpus.rename.lookups            58413444                       # Number of register rename lookups that rename has made
system.switch_cpus.rename.intLookups         35577478                       # Number of integer rename lookups
system.switch_cpus.rename.fpLookups            266844                       # Number of floating rename lookups
system.switch_cpus.rename.committedMaps      22061479                       # Number of HB maps that are committed
system.switch_cpus.rename.undoneMaps          4719193                       # Number of HB maps that are undone due to squashing
system.switch_cpus.rename.serializing             657                       # count of serializing insts renamed
system.switch_cpus.rename.tempSerializing          649                       # count of temporary serializing insts renamed
system.switch_cpus.rename.skidInsts           1252403                       # count of insts added to the skid buffer
system.switch_cpus.rob.reads                 30147059                       # The number of ROB reads
system.switch_cpus.rob.writes                44825590                       # The number of ROB writes
system.switch_cpus.thread_0.numInsts         10000000                       # Number of Instructions committed
system.switch_cpus.thread_0.numOps           18817440                       # Number of Ops committed
system.switch_cpus.thread_0.numMemRefs              0                       # Number of Memory References
system.tol2bus.trans_dist::ReadResp             87626                       # Transaction distribution
system.tol2bus.trans_dist::WritebackDirty        33184                       # Transaction distribution
system.tol2bus.trans_dist::WritebackClean        60090                       # Transaction distribution
system.tol2bus.trans_dist::CleanEvict           44701                       # Transaction distribution
system.tol2bus.trans_dist::UpgradeReq             136                       # Transaction distribution
system.tol2bus.trans_dist::UpgradeResp            136                       # Transaction distribution
system.tol2bus.trans_dist::ReadExReq            15468                       # Transaction distribution
system.tol2bus.trans_dist::ReadExResp           15468                       # Transaction distribution
system.tol2bus.trans_dist::ReadCleanReq         60560                       # Transaction distribution
system.tol2bus.trans_dist::ReadSharedReq        27066                       # Transaction distribution
system.tol2bus.pkt_count_system.cpu.icache.mem_side_port::system.l2.cpu_side_port       180997                       # Packet count per connected requestor and responder (bytes)
system.tol2bus.pkt_count_system.cpu.dcache.mem_side_port::system.l2.cpu_side_port       127874                       # Packet count per connected requestor and responder (bytes)
system.tol2bus.pkt_count::total                308871                       # Packet count per connected requestor and responder (bytes)
system.tol2bus.pkt_size_system.cpu.icache.mem_side_port::system.l2.cpu_side_port      7707968                       # Cumulative packet size per connected requestor and responder (bytes)
system.tol2bus.pkt_size_system.cpu.dcache.mem_side_port::system.l2.cpu_side_port      4104064                       # Cumulative packet size per connected requestor and responder (bytes)
system.tol2bus.pkt_size::total               11812032                       # Cumulative packet size per connected requestor and responder (bytes)
system.tol2bus.snoops                           35564                       # Total snoops (count)
system.tol2bus.snoopTraffic                    755520                       # Total snoop traffic (bytes)
system.tol2bus.snoop_fanout::samples           138581                       # Request fanout histogram
system.tol2bus.snoop_fanout::mean            0.018848                       # Request fanout histogram
system.tol2bus.snoop_fanout::stdev           0.136413                       # Request fanout histogram
system.tol2bus.snoop_fanout::underflows             0      0.00%      0.00% # Request fanout histogram
system.tol2bus.snoop_fanout::0                 135977     98.12%     98.12% # Request fanout histogram
system.tol2bus.snoop_fanout::1                   2596      1.87%     99.99% # Request fanout histogram
system.tol2bus.snoop_fanout::2                      8      0.01%    100.00% # Request fanout histogram
system.tol2bus.snoop_fanout::3                      0      0.00%    100.00% # Request fanout histogram
system.tol2bus.snoop_fanout::4                      0      0.00%    100.00% # Request fanout histogram
system.tol2bus.snoop_fanout::overflows              0      0.00%    100.00% # Request fanout histogram
system.tol2bus.snoop_fanout::min_value              0                       # Request fanout histogram
system.tol2bus.snoop_fanout::max_value              2                       # Request fanout histogram
system.tol2bus.snoop_fanout::total             138581                       # Request fanout histogram
system.tol2bus.power_state.pwrStateResidencyTicks::UNDEFINED   6101249000                       # Cumulative time (in ticks) in various power states
system.tol2bus.reqLayer0.occupancy          184609000                       # Layer occupancy (ticks)
system.tol2bus.reqLayer0.utilization              3.7                       # Layer utilization (%)
system.tol2bus.respLayer0.occupancy          90873932                       # Layer occupancy (ticks)
system.tol2bus.respLayer0.utilization             1.8                       # Layer utilization (%)
system.tol2bus.respLayer1.occupancy          63880477                       # Layer occupancy (ticks)
system.tol2bus.respLayer1.utilization             1.3                       # Layer utilization (%)
system.voltage_domain.voltage                       1                       # Voltage in Volts

---------- End Simulation Statistics   ----------
