
---------- Begin Simulation Statistics ----------
final_tick                                 6083231500                       # Number of ticks from beginning of simulation (restored from checkpoints and never reset)
host_inst_rate                                 132860                       # Simulator instruction rate (inst/s)
host_mem_usage                                8608172                       # Number of bytes of host memory used
host_op_rate                                   232742                       # Simulator op (including micro ops) rate (op/s)
host_seconds                                    82.79                       # Real time elapsed on the host
host_tick_rate                               60324293                       # Simulator tick rate (ticks/s)
sim_freq                                 1000000000000                       # Frequency of simulated ticks
sim_insts                                    11000002                       # Number of instructions simulated
sim_ops                                      19269684                       # Number of ops (including micro ops) simulated
sim_seconds                                  0.004995                       # Number of seconds simulated
sim_ticks                                  4994506500                       # Number of ticks simulated
system.cpu.committedInsts                           0                       # Number of instructions committed
system.cpu.committedOps                             0                       # Number of ops (including micro ops) committed
system.cpu.idle_fraction                            0                       # Percentage of idle cycles
system.cpu.not_idle_fraction                        1                       # Percentage of non-idle cycles
system.cpu.numCycles                                0                       # number of cpu cycles simulated
system.cpu.numWorkItemsCompleted                    0                       # number of work items this cpu completed
system.cpu.numWorkItemsStarted                      0                       # number of work items this cpu started
system.cpu.num_busy_cycles                          0                       # Number of busy cycles
system.cpu.num_conditional_control_insts            0                       # number of instructions that are conditional controls
system.cpu.num_fp_alu_accesses                      0                       # Number of float alu accesses
system.cpu.num_fp_insts                             0                       # number of float instructions
system.cpu.num_fp_register_reads                    0                       # number of times the floating registers were read
system.cpu.num_fp_register_writes                   0                       # number of times the floating registers were written
system.cpu.num_func_calls                           0                       # number of times a function call or return occured
system.cpu.num_idle_cycles                          0                       # Number of idle cycles
system.cpu.num_int_alu_accesses                     0                       # Number of integer alu accesses
system.cpu.num_int_insts                            0                       # number of integer instructions
system.cpu.num_int_register_reads                   0                       # number of times the integer registers were read
system.cpu.num_int_register_writes                  0                       # number of times the integer registers were written
system.cpu.num_load_insts                           0                       # Number of load instructions
system.cpu.num_mem_refs                             0                       # number of memory refs
system.cpu.num_store_insts                          0                       # Number of store instructions
system.cpu.num_vec_alu_accesses                     0                       # Number of vector alu accesses
system.cpu.num_vec_insts                            0                       # number of vector instructions
system.cpu.num_vec_register_reads                   0                       # number of times the vector registers were read
system.cpu.num_vec_register_writes                  0                       # number of times the vector registers were written
system.cpu.op_class::No_OpClass                     0                       # Class of executed instruction
system.cpu.op_class::IntAlu                         0                       # Class of executed instruction
system.cpu.op_class::IntMult                        0                       # Class of executed instruction
system.cpu.op_class::IntDiv                         0                       # Class of executed instruction
system.cpu.op_class::FloatAdd                       0                       # Class of executed instruction
system.cpu.op_class::FloatCmp                       0                       # Class of executed instruction
system.cpu.op_class::FloatCvt                       0                       # Class of executed instruction
system.cpu.op_class::FloatMult                      0                       # Class of executed instruction
system.cpu.op_class::FloatMultAcc                   0                       # Class of executed instruction
system.cpu.op_class::FloatDiv                       0                       # Class of executed instruction
system.cpu.op_class::FloatMisc                      0                       # Class of executed instruction
system.cpu.op_class::FloatSqrt                      0                       # Class of executed instruction
system.cpu.op_class::SimdAdd                        0                       # Class of executed instruction
system.cpu.op_class::SimdAddAcc                     0                       # Class of executed instruction
system.cpu.op_class::SimdAlu                        0                       # Class of executed instruction
system.cpu.op_class::SimdCmp                        0                       # Class of executed instruction
system.cpu.op_class::SimdCvt                        0                       # Class of executed instruction
system.cpu.op_class::SimdMisc                       0                       # Class of executed instruction
system.cpu.op_class::SimdMult                       0                       # Class of executed instruction
system.cpu.op_class::SimdMultAcc                    0                       # Class of executed instruction
system.cpu.op_class::SimdShift                      0                       # Class of executed instruction
system.cpu.op_class::SimdShiftAcc                   0                       # Class of executed instruction
system.cpu.op_class::SimdDiv                        0                       # Class of executed instruction
system.cpu.op_class::SimdSqrt                       0                       # Class of executed instruction
system.cpu.op_class::SimdFloatAdd                   0                       # Class of executed instruction
system.cpu.op_class::SimdFloatAlu                   0                       # Class of executed instruction
system.cpu.op_class::SimdFloatCmp                   0                       # Class of executed instruction
system.cpu.op_class::SimdFloatCvt                   0                       # Class of executed instruction
system.cpu.op_class::SimdFloatDiv                   0                       # Class of executed instruction
system.cpu.op_class::SimdFloatMisc                  0                       # Class of executed instruction
system.cpu.op_class::SimdFloatMult                  0                       # Class of executed instruction
system.cpu.op_class::SimdFloatMultAcc               0                       # Class of executed instruction
system.cpu.op_class::SimdFloatSqrt                  0                       # Class of executed instruction
system.cpu.op_class::SimdReduceAdd                  0                       # Class of executed instruction
system.cpu.op_class::SimdReduceAlu                  0                       # Class of executed instruction
system.cpu.op_class::SimdReduceCmp                  0                       # Class of executed instruction
system.cpu.op_class::SimdFloatReduceAdd             0                       # Class of executed instruction
system.cpu.op_class::SimdFloatReduceCmp             0                       # Class of executed instruction
system.cpu.op_class::SimdAes                        0                       # Class of executed instruction
system.cpu.op_class::SimdAesMix                     0                       # Class of executed instruction
system.cpu.op_class::SimdSha1Hash                   0                       # Class of executed instruction
system.cpu.op_class::SimdSha1Hash2                  0                       # Class of executed instruction
system.cpu.op_class::SimdSha256Hash                 0                       # Class of executed instruction
system.cpu.op_class::SimdSha256Hash2                0                       # Class of executed instruction
system.cpu.op_class::SimdShaSigma2                  0                       # Class of executed instruction
system.cpu.op_class::SimdShaSigma3                  0                       # Class of executed instruction
system.cpu.op_class::SimdPredAlu                    0                       # Class of executed instruction
system.cpu.op_class::MemRead                        0                       # Class of executed instruction
system.cpu.op_class::MemWrite                       0                       # Class of executed instruction
system.cpu.op_class::FloatMemRead                   0                       # Class of executed instruction
system.cpu.op_class::FloatMemWrite                  0                       # Class of executed instruction
system.cpu.op_class::IprAccess                      0                       # Class of executed instruction
system.cpu.op_class::InstPrefetch                   0                       # Class of executed instruction
system.cpu.op_class::total                          0                       # Class of executed instruction
system.cpu.workload.numSyscalls                     0                       # Number of system calls
system.membus.snoop_filter.hit_multi_requests            0                       # Number of requests hitting in the snoop filter with multiple (>1) holders of the requested data.
system.membus.snoop_filter.hit_multi_snoops            0                       # Number of snoops hitting in the snoop filter with multiple (>1) holders of the requested data.
system.membus.snoop_filter.hit_single_requests          324                       # Number of requests hitting in the snoop filter with a single holder of the requested data.
system.membus.snoop_filter.hit_single_snoops            0                       # Number of snoops hitting in the snoop filter with a single holder of the requested data.
system.membus.snoop_filter.tot_requests          1207                       # Total number of requests made to the snoop filter.
system.membus.snoop_filter.tot_snoops               0                       # Total number of snoops made to the snoop filter.
system.switch_cpus.cc_regfile_reads          13340423                       # number of cc regfile reads
system.switch_cpus.cc_regfile_writes         11348194                       # number of cc regfile writes
system.switch_cpus.committedInsts            10000001                       # Number of Instructions Simulated
system.switch_cpus.committedOps              17415167                       # Number of Ops (including micro ops) Simulated
system.switch_cpus.cpi                       0.998901                       # CPI: Cycles Per Instruction
system.switch_cpus.cpi_total                 0.998901                       # CPI: Total CPI of All Threads
system.switch_cpus.fp_regfile_reads             42497                       # number of floating regfile reads
system.switch_cpus.fp_regfile_writes            49481                       # number of floating regfile writes
system.switch_cpus.idleCycles                   63786                       # Total number of cycles that the CPU has spent unscheduled due to idling
system.switch_cpus.iew.branchMispredicts       488026                       # Number of branch mispredicts detected at execute
system.switch_cpus.iew.exec_branches          2199239                       # Number of branches executed
system.switch_cpus.iew.exec_nop                     0                       # number of nop insts executed
system.switch_cpus.iew.exec_rate             2.422806                       # Inst execution rate
system.switch_cpus.iew.exec_refs              4696036                       # number of memory reference insts executed
system.switch_cpus.iew.exec_stores            1420126                       # Number of stores executed
system.switch_cpus.iew.exec_swp                     0                       # number of swp insts executed
system.switch_cpus.iew.iewBlockCycles         1181795                       # Number of cycles IEW is blocking
system.switch_cpus.iew.iewDispLoadInsts       3671869                       # Number of dispatched load instructions
system.switch_cpus.iew.iewDispNonSpecInsts            0                       # Number of dispatched non-speculative instructions
system.switch_cpus.iew.iewDispSquashedInsts        68711                       # Number of squashed instructions skipped by dispatch
system.switch_cpus.iew.iewDispStoreInsts      1881330                       # Number of dispatched store instructions
system.switch_cpus.iew.iewDispatchedInsts     28817718                       # Number of instructions dispatched to IQ
system.switch_cpus.iew.iewExecLoadInsts       3275910                       # Number of load instructions executed
system.switch_cpus.iew.iewExecSquashedInsts      1077264                       # Number of squashed instructions skipped in execute
system.switch_cpus.iew.iewExecutedInsts      24201445                       # Number of executed instructions
system.switch_cpus.iew.iewIQFullEvents              0                       # Number of times the IQ has become full, causing a stall
system.switch_cpus.iew.iewIdleCycles                0                       # Number of cycles IEW is idle
system.switch_cpus.iew.iewLSQFullEvents          1498                       # Number of times the LSQ has become full, causing a stall
system.switch_cpus.iew.iewSquashCycles         431873                       # Number of cycles IEW is squashing
system.switch_cpus.iew.iewUnblockCycles          1497                       # Number of cycles IEW is unblocking
system.switch_cpus.iew.memOrderViolationEvents         2408                       # Number of memory order violations
system.switch_cpus.iew.predictedNotTakenIncorrect       231063                       # Number of branches that were predicted not taken incorrectly
system.switch_cpus.iew.predictedTakenIncorrect       256963                       # Number of branches that were predicted taken incorrectly
system.switch_cpus.iew.wb_consumers          26297236                       # num instructions consuming a value
system.switch_cpus.iew.wb_count              23695070                       # cumulative count of insts written-back
system.switch_cpus.iew.wb_fanout             0.649282                       # average fanout of values written-back
system.switch_cpus.iew.wb_producers          17074315                       # num instructions producing a value
system.switch_cpus.iew.wb_rate               2.372113                       # insts written-back per cycle
system.switch_cpus.iew.wb_sent               23884823                       # cumulative count of insts sent to commit
system.switch_cpus.int_regfile_reads         36740437                       # number of integer regfile reads
system.switch_cpus.int_regfile_writes        20452781                       # number of integer regfile writes
system.switch_cpus.ipc                       1.001100                       # IPC: Instructions Per Cycle
system.switch_cpus.ipc_total                 1.001100                       # IPC: Total IPC of All Threads
system.switch_cpus.iq.FU_type_0::No_OpClass        51324      0.20%      0.20% # Type of FU issued
system.switch_cpus.iq.FU_type_0::IntAlu      19907308     78.75%     78.95% # Type of FU issued
system.switch_cpus.iq.FU_type_0::IntMult       305712      1.21%     80.16% # Type of FU issued
system.switch_cpus.iq.FU_type_0::IntDiv          2429      0.01%     80.17% # Type of FU issued
system.switch_cpus.iq.FU_type_0::FloatAdd          614      0.00%     80.18% # Type of FU issued
system.switch_cpus.iq.FU_type_0::FloatCmp            0      0.00%     80.18% # Type of FU issued
system.switch_cpus.iq.FU_type_0::FloatCvt            0      0.00%     80.18% # Type of FU issued
system.switch_cpus.iq.FU_type_0::FloatMult            0      0.00%     80.18% # Type of FU issued
system.switch_cpus.iq.FU_type_0::FloatMultAcc            0      0.00%     80.18% # Type of FU issued
system.switch_cpus.iq.FU_type_0::FloatDiv            0      0.00%     80.18% # Type of FU issued
system.switch_cpus.iq.FU_type_0::FloatMisc            0      0.00%     80.18% # Type of FU issued
system.switch_cpus.iq.FU_type_0::FloatSqrt            0      0.00%     80.18% # Type of FU issued
system.switch_cpus.iq.FU_type_0::SimdAdd            0      0.00%     80.18% # Type of FU issued
system.switch_cpus.iq.FU_type_0::SimdAddAcc            0      0.00%     80.18% # Type of FU issued
system.switch_cpus.iq.FU_type_0::SimdAlu          152      0.00%     80.18% # Type of FU issued
system.switch_cpus.iq.FU_type_0::SimdCmp            0      0.00%     80.18% # Type of FU issued
system.switch_cpus.iq.FU_type_0::SimdCvt            0      0.00%     80.18% # Type of FU issued
system.switch_cpus.iq.FU_type_0::SimdMisc         2798      0.01%     80.19% # Type of FU issued
system.switch_cpus.iq.FU_type_0::SimdMult            0      0.00%     80.19% # Type of FU issued
system.switch_cpus.iq.FU_type_0::SimdMultAcc            0      0.00%     80.19% # Type of FU issued
system.switch_cpus.iq.FU_type_0::SimdShift            0      0.00%     80.19% # Type of FU issued
system.switch_cpus.iq.FU_type_0::SimdShiftAcc            0      0.00%     80.19% # Type of FU issued
system.switch_cpus.iq.FU_type_0::SimdDiv            0      0.00%     80.19% # Type of FU issued
system.switch_cpus.iq.FU_type_0::SimdSqrt            0      0.00%     80.19% # Type of FU issued
system.switch_cpus.iq.FU_type_0::SimdFloatAdd            0      0.00%     80.19% # Type of FU issued
system.switch_cpus.iq.FU_type_0::SimdFloatAlu            0      0.00%     80.19% # Type of FU issued
system.switch_cpus.iq.FU_type_0::SimdFloatCmp            0      0.00%     80.19% # Type of FU issued
system.switch_cpus.iq.FU_type_0::SimdFloatCvt            0      0.00%     80.19% # Type of FU issued
system.switch_cpus.iq.FU_type_0::SimdFloatDiv            0      0.00%     80.19% # Type of FU issued
system.switch_cpus.iq.FU_type_0::SimdFloatMisc            0      0.00%     80.19% # Type of FU issued
system.switch_cpus.iq.FU_type_0::SimdFloatMult            0      0.00%     80.19% # Type of FU issued
system.switch_cpus.iq.FU_type_0::SimdFloatMultAcc            0      0.00%     80.19% # Type of FU issued
system.switch_cpus.iq.FU_type_0::SimdFloatSqrt            0      0.00%     80.19% # Type of FU issued
system.switch_cpus.iq.FU_type_0::SimdReduceAdd            0      0.00%     80.19% # Type of FU issued
system.switch_cpus.iq.FU_type_0::SimdReduceAlu            0      0.00%     80.19% # Type of FU issued
system.switch_cpus.iq.FU_type_0::SimdReduceCmp            0      0.00%     80.19% # Type of FU issued
system.switch_cpus.iq.FU_type_0::SimdFloatReduceAdd            0      0.00%     80.19% # Type of FU issued
system.switch_cpus.iq.FU_type_0::SimdFloatReduceCmp            0      0.00%     80.19% # Type of FU issued
system.switch_cpus.iq.FU_type_0::SimdAes            0      0.00%     80.19% # Type of FU issued
system.switch_cpus.iq.FU_type_0::SimdAesMix            0      0.00%     80.19% # Type of FU issued
system.switch_cpus.iq.FU_type_0::SimdSha1Hash            0      0.00%     80.19% # Type of FU issued
system.switch_cpus.iq.FU_type_0::SimdSha1Hash2            0      0.00%     80.19% # Type of FU issued
system.switch_cpus.iq.FU_type_0::SimdSha256Hash            0      0.00%     80.19% # Type of FU issued
system.switch_cpus.iq.FU_type_0::SimdSha256Hash2            0      0.00%     80.19% # Type of FU issued
system.switch_cpus.iq.FU_type_0::SimdShaSigma2            0      0.00%     80.19% # Type of FU issued
system.switch_cpus.iq.FU_type_0::SimdShaSigma3            0      0.00%     80.19% # Type of FU issued
system.switch_cpus.iq.FU_type_0::SimdPredAlu            0      0.00%     80.19% # Type of FU issued
system.switch_cpus.iq.FU_type_0::MemRead      3465917     13.71%     93.90% # Type of FU issued
system.switch_cpus.iq.FU_type_0::MemWrite      1454974      5.76%     99.65% # Type of FU issued
system.switch_cpus.iq.FU_type_0::FloatMemRead        51079      0.20%     99.86% # Type of FU issued
system.switch_cpus.iq.FU_type_0::FloatMemWrite        36407      0.14%    100.00% # Type of FU issued
system.switch_cpus.iq.FU_type_0::IprAccess            0      0.00%    100.00% # Type of FU issued
system.switch_cpus.iq.FU_type_0::InstPrefetch            0      0.00%    100.00% # Type of FU issued
system.switch_cpus.iq.FU_type_0::total       25278714                       # Type of FU issued
system.switch_cpus.iq.fp_alu_accesses           99898                       # Number of floating point alu accesses
system.switch_cpus.iq.fp_inst_queue_reads       191889                       # Number of floating instruction queue reads
system.switch_cpus.iq.fp_inst_queue_wakeup_accesses        83837                       # Number of floating instruction queue wakeup accesses
system.switch_cpus.iq.fp_inst_queue_writes       114610                       # Number of floating instruction queue writes
system.switch_cpus.iq.fu_busy_cnt              503439                       # FU busy when requested
system.switch_cpus.iq.fu_busy_rate           0.019916                       # FU busy rate (busy events/executed inst)
system.switch_cpus.iq.fu_full::No_OpClass            0      0.00%      0.00% # attempts to use FU when none available
system.switch_cpus.iq.fu_full::IntAlu          433555     86.12%     86.12% # attempts to use FU when none available
system.switch_cpus.iq.fu_full::IntMult              0      0.00%     86.12% # attempts to use FU when none available
system.switch_cpus.iq.fu_full::IntDiv               0      0.00%     86.12% # attempts to use FU when none available
system.switch_cpus.iq.fu_full::FloatAdd             0      0.00%     86.12% # attempts to use FU when none available
system.switch_cpus.iq.fu_full::FloatCmp             0      0.00%     86.12% # attempts to use FU when none available
system.switch_cpus.iq.fu_full::FloatCvt             0      0.00%     86.12% # attempts to use FU when none available
system.switch_cpus.iq.fu_full::FloatMult            0      0.00%     86.12% # attempts to use FU when none available
system.switch_cpus.iq.fu_full::FloatMultAcc            0      0.00%     86.12% # attempts to use FU when none available
system.switch_cpus.iq.fu_full::FloatDiv             0      0.00%     86.12% # attempts to use FU when none available
system.switch_cpus.iq.fu_full::FloatMisc            0      0.00%     86.12% # attempts to use FU when none available
system.switch_cpus.iq.fu_full::FloatSqrt            0      0.00%     86.12% # attempts to use FU when none available
system.switch_cpus.iq.fu_full::SimdAdd              0      0.00%     86.12% # attempts to use FU when none available
system.switch_cpus.iq.fu_full::SimdAddAcc            0      0.00%     86.12% # attempts to use FU when none available
system.switch_cpus.iq.fu_full::SimdAlu              0      0.00%     86.12% # attempts to use FU when none available
system.switch_cpus.iq.fu_full::SimdCmp              0      0.00%     86.12% # attempts to use FU when none available
system.switch_cpus.iq.fu_full::SimdCvt              0      0.00%     86.12% # attempts to use FU when none available
system.switch_cpus.iq.fu_full::SimdMisc             0      0.00%     86.12% # attempts to use FU when none available
system.switch_cpus.iq.fu_full::SimdMult             0      0.00%     86.12% # attempts to use FU when none available
system.switch_cpus.iq.fu_full::SimdMultAcc            0      0.00%     86.12% # attempts to use FU when none available
system.switch_cpus.iq.fu_full::SimdShift            0      0.00%     86.12% # attempts to use FU when none available
system.switch_cpus.iq.fu_full::SimdShiftAcc            0      0.00%     86.12% # attempts to use FU when none available
system.switch_cpus.iq.fu_full::SimdDiv              0      0.00%     86.12% # attempts to use FU when none available
system.switch_cpus.iq.fu_full::SimdSqrt             0      0.00%     86.12% # attempts to use FU when none available
system.switch_cpus.iq.fu_full::SimdFloatAdd            0      0.00%     86.12% # attempts to use FU when none available
system.switch_cpus.iq.fu_full::SimdFloatAlu            0      0.00%     86.12% # attempts to use FU when none available
system.switch_cpus.iq.fu_full::SimdFloatCmp            0      0.00%     86.12% # attempts to use FU when none available
system.switch_cpus.iq.fu_full::SimdFloatCvt            0      0.00%     86.12% # attempts to use FU when none available
system.switch_cpus.iq.fu_full::SimdFloatDiv            0      0.00%     86.12% # attempts to use FU when none available
system.switch_cpus.iq.fu_full::SimdFloatMisc            0      0.00%     86.12% # attempts to use FU when none available
system.switch_cpus.iq.fu_full::SimdFloatMult            0      0.00%     86.12% # attempts to use FU when none available
system.switch_cpus.iq.fu_full::SimdFloatMultAcc            0      0.00%     86.12% # attempts to use FU when none available
system.switch_cpus.iq.fu_full::SimdFloatSqrt            0      0.00%     86.12% # attempts to use FU when none available
system.switch_cpus.iq.fu_full::SimdReduceAdd            0      0.00%     86.12% # attempts to use FU when none available
system.switch_cpus.iq.fu_full::SimdReduceAlu            0      0.00%     86.12% # attempts to use FU when none available
system.switch_cpus.iq.fu_full::SimdReduceCmp            0      0.00%     86.12% # attempts to use FU when none available
system.switch_cpus.iq.fu_full::SimdFloatReduceAdd            0      0.00%     86.12% # attempts to use FU when none available
system.switch_cpus.iq.fu_full::SimdFloatReduceCmp            0      0.00%     86.12% # attempts to use FU when none available
system.switch_cpus.iq.fu_full::SimdAes              0      0.00%     86.12% # attempts to use FU when none available
system.switch_cpus.iq.fu_full::SimdAesMix            0      0.00%     86.12% # attempts to use FU when none available
system.switch_cpus.iq.fu_full::SimdSha1Hash            0      0.00%     86.12% # attempts to use FU when none available
system.switch_cpus.iq.fu_full::SimdSha1Hash2            0      0.00%     86.12% # attempts to use FU when none available
system.switch_cpus.iq.fu_full::SimdSha256Hash            0      0.00%     86.12% # attempts to use FU when none available
system.switch_cpus.iq.fu_full::SimdSha256Hash2            0      0.00%     86.12% # attempts to use FU when none available
system.switch_cpus.iq.fu_full::SimdShaSigma2            0      0.00%     86.12% # attempts to use FU when none available
system.switch_cpus.iq.fu_full::SimdShaSigma3            0      0.00%     86.12% # attempts to use FU when none available
system.switch_cpus.iq.fu_full::SimdPredAlu            0      0.00%     86.12% # attempts to use FU when none available
system.switch_cpus.iq.fu_full::MemRead          40972      8.14%     94.26% # attempts to use FU when none available
system.switch_cpus.iq.fu_full::MemWrite         20486      4.07%     98.33% # attempts to use FU when none available
system.switch_cpus.iq.fu_full::FloatMemRead         5568      1.11%     99.43% # attempts to use FU when none available
system.switch_cpus.iq.fu_full::FloatMemWrite         2858      0.57%    100.00% # attempts to use FU when none available
system.switch_cpus.iq.fu_full::IprAccess            0      0.00%    100.00% # attempts to use FU when none available
system.switch_cpus.iq.fu_full::InstPrefetch            0      0.00%    100.00% # attempts to use FU when none available
system.switch_cpus.iq.int_alu_accesses       25630931                       # Number of integer alu accesses
system.switch_cpus.iq.int_inst_queue_reads     60949710                       # Number of integer instruction queue reads
system.switch_cpus.iq.int_inst_queue_wakeup_accesses     23611233                       # Number of integer instruction queue wakeup accesses
system.switch_cpus.iq.int_inst_queue_writes     40107847                       # Number of integer instruction queue writes
system.switch_cpus.iq.iqInstsAdded           28817718                       # Number of instructions added to the IQ (excludes non-spec)
system.switch_cpus.iq.iqInstsIssued          25278714                       # Number of instructions issued
system.switch_cpus.iq.iqSquashedInstsExamined     11402473                       # Number of squashed instructions iterated over during squash; mainly for profiling
system.switch_cpus.iq.iqSquashedInstsIssued       155510                       # Number of squashed instructions issued
system.switch_cpus.iq.iqSquashedOperandsExamined     14617879                       # Number of squashed operands that are examined and possibly removed from graph
system.switch_cpus.iq.issued_per_cycle::samples      9925227                       # Number of insts issued each cycle
system.switch_cpus.iq.issued_per_cycle::mean     2.546915                       # Number of insts issued each cycle
system.switch_cpus.iq.issued_per_cycle::stdev     2.591036                       # Number of insts issued each cycle
system.switch_cpus.iq.issued_per_cycle::underflows            0      0.00%      0.00% # Number of insts issued each cycle
system.switch_cpus.iq.issued_per_cycle::0      3841839     38.71%     38.71% # Number of insts issued each cycle
system.switch_cpus.iq.issued_per_cycle::1       855909      8.62%     47.33% # Number of insts issued each cycle
system.switch_cpus.iq.issued_per_cycle::2       744524      7.50%     54.83% # Number of insts issued each cycle
system.switch_cpus.iq.issued_per_cycle::3       823232      8.29%     63.13% # Number of insts issued each cycle
system.switch_cpus.iq.issued_per_cycle::4       881357      8.88%     72.01% # Number of insts issued each cycle
system.switch_cpus.iq.issued_per_cycle::5       879141      8.86%     80.86% # Number of insts issued each cycle
system.switch_cpus.iq.issued_per_cycle::6       952386      9.60%     90.46% # Number of insts issued each cycle
system.switch_cpus.iq.issued_per_cycle::7       746100      7.52%     97.98% # Number of insts issued each cycle
system.switch_cpus.iq.issued_per_cycle::8       200739      2.02%    100.00% # Number of insts issued each cycle
system.switch_cpus.iq.issued_per_cycle::overflows            0      0.00%    100.00% # Number of insts issued each cycle
system.switch_cpus.iq.issued_per_cycle::min_value            0                       # Number of insts issued each cycle
system.switch_cpus.iq.issued_per_cycle::max_value            8                       # Number of insts issued each cycle
system.switch_cpus.iq.issued_per_cycle::total      9925227                       # Number of insts issued each cycle
system.switch_cpus.iq.rate                   2.530652                       # Inst issue rate
system.switch_cpus.iq.vec_alu_accesses              0                       # Number of vector alu accesses
system.switch_cpus.iq.vec_inst_queue_reads            0                       # Number of vector instruction queue reads
system.switch_cpus.iq.vec_inst_queue_wakeup_accesses            0                       # Number of vector instruction queue wakeup accesses
system.switch_cpus.iq.vec_inst_queue_writes            0                       # Number of vector instruction queue writes
system.switch_cpus.memDep0.conflictingLoads       146113                       # Number of conflicting loads.
system.switch_cpus.memDep0.conflictingStores        77692                       # Number of conflicting stores.
system.switch_cpus.memDep0.insertedLoads      3671869                       # Number of loads inserted to the mem dependence unit.
system.switch_cpus.memDep0.insertedStores      1881330                       # Number of stores inserted to the mem dependence unit.
system.switch_cpus.misc_regfile_reads         9624969                       # number of misc regfile reads
system.switch_cpus.numCycles                  9989013                       # number of cpu cycles simulated
system.switch_cpus.numWorkItemsCompleted            0                       # number of work items this cpu completed
system.switch_cpus.numWorkItemsStarted              0                       # number of work items this cpu started
system.switch_cpus.timesIdled                    1446                       # Number of times that the entire CPU went into an idle state and unscheduled itself
system.tol2bus.snoop_filter.hit_multi_requests            1                       # Number of requests hitting in the snoop filter with multiple (>1) holders of the requested data.
system.tol2bus.snoop_filter.hit_multi_snoops            0                       # Number of snoops hitting in the snoop filter with multiple (>1) holders of the requested data.
system.tol2bus.snoop_filter.hit_single_requests         5135                       # Number of requests hitting in the snoop filter with a single holder of the requested data.
system.tol2bus.snoop_filter.hit_single_snoops            5                       # Number of snoops hitting in the snoop filter with a single holder of the requested data.
system.tol2bus.snoop_filter.tot_requests        10289                       # Total number of requests made to the snoop filter.
system.tol2bus.snoop_filter.tot_snoops              5                       # Total number of snoops made to the snoop filter.
system.clk_domain.clock                          1000                       # Clock period in ticks
system.cpu.branchPred.lookups                       0                       # Number of BP lookups
system.cpu.branchPred.condPredicted                 0                       # Number of conditional branches predicted
system.cpu.branchPred.condIncorrect                 0                       # Number of conditional branches incorrect
system.cpu.branchPred.BTBLookups                    0                       # Number of BTB lookups
system.cpu.branchPred.BTBHits                       0                       # Number of BTB hits
system.cpu.branchPred.BTBHitPct                   nan                       # BTB Hit Percentage
system.cpu.branchPred.RASUsed                       0                       # Number of times the RAS was used to get a target.
system.cpu.branchPred.RASIncorrect                  0                       # Number of incorrect RAS predictions.
system.cpu.branchPred.indirectLookups               0                       # Number of indirect predictor lookups.
system.cpu.branchPred.indirectHits                  0                       # Number of indirect target hits.
system.cpu.branchPred.indirectMisses                0                       # Number of indirect misses.
system.cpu.branchPred.indirectMispredicted            0                       # Number of mispredicted indirect branches.
system.cpu.dcache.demand_hits::.switch_cpus.data      4192758                       # number of demand (read+write) hits
system.cpu.dcache.demand_hits::total          4192758                       # number of demand (read+write) hits
system.cpu.dcache.overall_hits::.switch_cpus.data      4192758                       # number of overall hits
system.cpu.dcache.overall_hits::total         4192758                       # number of overall hits
system.cpu.dcache.demand_misses::.switch_cpus.data          131                       # number of demand (read+write) misses
system.cpu.dcache.demand_misses::total            131                       # number of demand (read+write) misses
system.cpu.dcache.overall_misses::.switch_cpus.data          131                       # number of overall misses
system.cpu.dcache.overall_misses::total           131                       # number of overall misses
system.cpu.dcache.demand_miss_latency::.switch_cpus.data      6618500                       # number of demand (read+write) miss cycles
system.cpu.dcache.demand_miss_latency::total      6618500                       # number of demand (read+write) miss cycles
system.cpu.dcache.overall_miss_latency::.switch_cpus.data      6618500                       # number of overall miss cycles
system.cpu.dcache.overall_miss_latency::total      6618500                       # number of overall miss cycles
system.cpu.dcache.demand_accesses::.switch_cpus.data      4192889                       # number of demand (read+write) accesses
system.cpu.dcache.demand_accesses::total      4192889                       # number of demand (read+write) accesses
system.cpu.dcache.overall_accesses::.switch_cpus.data      4192889                       # number of overall (read+write) accesses
system.cpu.dcache.overall_accesses::total      4192889                       # number of overall (read+write) accesses
system.cpu.dcache.demand_miss_rate::.switch_cpus.data     0.000031                       # miss rate for demand accesses
system.cpu.dcache.demand_miss_rate::total     0.000031                       # miss rate for demand accesses
system.cpu.dcache.overall_miss_rate::.switch_cpus.data     0.000031                       # miss rate for overall accesses
system.cpu.dcache.overall_miss_rate::total     0.000031                       # miss rate for overall accesses
system.cpu.dcache.demand_avg_miss_latency::.switch_cpus.data 50522.900763                       # average overall miss latency
system.cpu.dcache.demand_avg_miss_latency::total 50522.900763                       # average overall miss latency
system.cpu.dcache.overall_avg_miss_latency::.switch_cpus.data 50522.900763                       # average overall miss latency
system.cpu.dcache.overall_avg_miss_latency::total 50522.900763                       # average overall miss latency
system.cpu.dcache.blocked_cycles::no_mshrs            0                       # number of cycles access was blocked
system.cpu.dcache.blocked_cycles::no_targets            0                       # number of cycles access was blocked
system.cpu.dcache.blocked::no_mshrs                 0                       # number of cycles access was blocked
system.cpu.dcache.blocked::no_targets               0                       # number of cycles access was blocked
system.cpu.dcache.avg_blocked_cycles::no_mshrs          nan                       # average number of cycles each access was blocked
system.cpu.dcache.avg_blocked_cycles::no_targets          nan                       # average number of cycles each access was blocked
system.cpu.dcache.writebacks::.writebacks          109                       # number of writebacks
system.cpu.dcache.writebacks::total               109                       # number of writebacks
system.cpu.dcache.demand_mshr_hits::.switch_cpus.data           12                       # number of demand (read+write) MSHR hits
system.cpu.dcache.demand_mshr_hits::total           12                       # number of demand (read+write) MSHR hits
system.cpu.dcache.overall_mshr_hits::.switch_cpus.data           12                       # number of overall MSHR hits
system.cpu.dcache.overall_mshr_hits::total           12                       # number of overall MSHR hits
system.cpu.dcache.demand_mshr_misses::.switch_cpus.data          119                       # number of demand (read+write) MSHR misses
system.cpu.dcache.demand_mshr_misses::total          119                       # number of demand (read+write) MSHR misses
system.cpu.dcache.overall_mshr_misses::.switch_cpus.data          119                       # number of overall MSHR misses
system.cpu.dcache.overall_mshr_misses::total          119                       # number of overall MSHR misses
system.cpu.dcache.demand_mshr_miss_latency::.switch_cpus.data      6176500                       # number of demand (read+write) MSHR miss cycles
system.cpu.dcache.demand_mshr_miss_latency::total      6176500                       # number of demand (read+write) MSHR miss cycles
system.cpu.dcache.overall_mshr_miss_latency::.switch_cpus.data      6176500                       # number of overall MSHR miss cycles
system.cpu.dcache.overall_mshr_miss_latency::total      6176500                       # number of overall MSHR miss cycles
system.cpu.dcache.demand_mshr_miss_rate::.switch_cpus.data     0.000028                       # mshr miss rate for demand accesses
system.cpu.dcache.demand_mshr_miss_rate::total     0.000028                       # mshr miss rate for demand accesses
system.cpu.dcache.overall_mshr_miss_rate::.switch_cpus.data     0.000028                       # mshr miss rate for overall accesses
system.cpu.dcache.overall_mshr_miss_rate::total     0.000028                       # mshr miss rate for overall accesses
system.cpu.dcache.demand_avg_mshr_miss_latency::.switch_cpus.data 51903.361345                       # average overall mshr miss latency
system.cpu.dcache.demand_avg_mshr_miss_latency::total 51903.361345                       # average overall mshr miss latency
system.cpu.dcache.overall_avg_mshr_miss_latency::.switch_cpus.data 51903.361345                       # average overall mshr miss latency
system.cpu.dcache.overall_avg_mshr_miss_latency::total 51903.361345                       # average overall mshr miss latency
system.cpu.dcache.replacements                    119                       # number of replacements
system.cpu.dcache.ReadReq_hits::.switch_cpus.data      3131031                       # number of ReadReq hits
system.cpu.dcache.ReadReq_hits::total         3131031                       # number of ReadReq hits
system.cpu.dcache.ReadReq_misses::.switch_cpus.data           46                       # number of ReadReq misses
system.cpu.dcache.ReadReq_misses::total            46                       # number of ReadReq misses
system.cpu.dcache.ReadReq_miss_latency::.switch_cpus.data      1092000                       # number of ReadReq miss cycles
system.cpu.dcache.ReadReq_miss_latency::total      1092000                       # number of ReadReq miss cycles
system.cpu.dcache.ReadReq_accesses::.switch_cpus.data      3131077                       # number of ReadReq accesses(hits+misses)
system.cpu.dcache.ReadReq_accesses::total      3131077                       # number of ReadReq accesses(hits+misses)
system.cpu.dcache.ReadReq_miss_rate::.switch_cpus.data     0.000015                       # miss rate for ReadReq accesses
system.cpu.dcache.ReadReq_miss_rate::total     0.000015                       # miss rate for ReadReq accesses
system.cpu.dcache.ReadReq_avg_miss_latency::.switch_cpus.data 23739.130435                       # average ReadReq miss latency
system.cpu.dcache.ReadReq_avg_miss_latency::total 23739.130435                       # average ReadReq miss latency
system.cpu.dcache.ReadReq_mshr_hits::.switch_cpus.data           12                       # number of ReadReq MSHR hits
system.cpu.dcache.ReadReq_mshr_hits::total           12                       # number of ReadReq MSHR hits
system.cpu.dcache.ReadReq_mshr_misses::.switch_cpus.data           34                       # number of ReadReq MSHR misses
system.cpu.dcache.ReadReq_mshr_misses::total           34                       # number of ReadReq MSHR misses
system.cpu.dcache.ReadReq_mshr_miss_latency::.switch_cpus.data       735000                       # number of ReadReq MSHR miss cycles
system.cpu.dcache.ReadReq_mshr_miss_latency::total       735000                       # number of ReadReq MSHR miss cycles
system.cpu.dcache.ReadReq_mshr_miss_rate::.switch_cpus.data     0.000011                       # mshr miss rate for ReadReq accesses
system.cpu.dcache.ReadReq_mshr_miss_rate::total     0.000011                       # mshr miss rate for ReadReq accesses
system.cpu.dcache.ReadReq_avg_mshr_miss_latency::.switch_cpus.data 21617.647059                       # average ReadReq mshr miss latency
system.cpu.dcache.ReadReq_avg_mshr_miss_latency::total 21617.647059                       # average ReadReq mshr miss latency
system.cpu.dcache.WriteReq_hits::.switch_cpus.data      1061727                       # number of WriteReq hits
system.cpu.dcache.WriteReq_hits::total        1061727                       # number of WriteReq hits
system.cpu.dcache.WriteReq_misses::.switch_cpus.data           85                       # number of WriteReq misses
system.cpu.dcache.WriteReq_misses::total           85                       # number of WriteReq misses
system.cpu.dcache.WriteReq_miss_latency::.switch_cpus.data      5526500                       # number of WriteReq miss cycles
system.cpu.dcache.WriteReq_miss_latency::total      5526500                       # number of WriteReq miss cycles
system.cpu.dcache.WriteReq_accesses::.switch_cpus.data      1061812                       # number of WriteReq accesses(hits+misses)
system.cpu.dcache.WriteReq_accesses::total      1061812                       # number of WriteReq accesses(hits+misses)
system.cpu.dcache.WriteReq_miss_rate::.switch_cpus.data     0.000080                       # miss rate for WriteReq accesses
system.cpu.dcache.WriteReq_miss_rate::total     0.000080                       # miss rate for WriteReq accesses
system.cpu.dcache.WriteReq_avg_miss_latency::.switch_cpus.data 65017.647059                       # average WriteReq miss latency
system.cpu.dcache.WriteReq_avg_miss_latency::total 65017.647059                       # average WriteReq miss latency
system.cpu.dcache.WriteReq_mshr_misses::.switch_cpus.data           85                       # number of WriteReq MSHR misses
system.cpu.dcache.WriteReq_mshr_misses::total           85                       # number of WriteReq MSHR misses
system.cpu.dcache.WriteReq_mshr_miss_latency::.switch_cpus.data      5441500                       # number of WriteReq MSHR miss cycles
system.cpu.dcache.WriteReq_mshr_miss_latency::total      5441500                       # number of WriteReq MSHR miss cycles
system.cpu.dcache.WriteReq_mshr_miss_rate::.switch_cpus.data     0.000080                       # mshr miss rate for WriteReq accesses
system.cpu.dcache.WriteReq_mshr_miss_rate::total     0.000080                       # mshr miss rate for WriteReq accesses
system.cpu.dcache.WriteReq_avg_mshr_miss_latency::.switch_cpus.data 64017.647059                       # average WriteReq mshr miss latency
system.cpu.dcache.WriteReq_avg_mshr_miss_latency::total 64017.647059                       # average WriteReq mshr miss latency
system.cpu.dcache.power_state.pwrStateResidencyTicks::UNDEFINED   6083231500                       # Cumulative time (in ticks) in various power states
system.cpu.dcache.tags.tagsinuse                 1024                       # Cycle average of tags in use
system.cpu.dcache.tags.total_refs             4406936                       # Total number of references to valid blocks.
system.cpu.dcache.tags.sampled_refs              1143                       # Sample count of references to valid blocks.
system.cpu.dcache.tags.avg_refs           3855.587052                       # Average number of references to valid blocks.
system.cpu.dcache.tags.warmup_cycle                 0                       # Cycle when the warmup percentage was hit.
system.cpu.dcache.tags.occ_blocks::.cpu.data   940.737495                       # Average occupied blocks per requestor
system.cpu.dcache.tags.occ_blocks::.switch_cpus.data    83.262505                       # Average occupied blocks per requestor
system.cpu.dcache.tags.occ_percent::.cpu.data     0.918689                       # Average percentage of cache occupancy
system.cpu.dcache.tags.occ_percent::.switch_cpus.data     0.081311                       # Average percentage of cache occupancy
system.cpu.dcache.tags.occ_percent::total            1                       # Average percentage of cache occupancy
system.cpu.dcache.tags.occ_task_id_blocks::1024         1024                       # Occupied blocks per task id
system.cpu.dcache.tags.age_task_id_blocks_1024::1            1                       # Occupied blocks per task id
system.cpu.dcache.tags.age_task_id_blocks_1024::2            1                       # Occupied blocks per task id
system.cpu.dcache.tags.age_task_id_blocks_1024::3         1022                       # Occupied blocks per task id
system.cpu.dcache.tags.occ_task_id_percent::1024            1                       # Percentage of cache occupancy per task id
system.cpu.dcache.tags.tag_accesses           8385897                       # Number of tag accesses
system.cpu.dcache.tags.data_accesses          8385897                       # Number of data accesses
system.cpu.dcache.tags.power_state.pwrStateResidencyTicks::UNDEFINED   6083231500                       # Cumulative time (in ticks) in various power states
system.cpu.dtb.rdAccesses                           0                       # TLB accesses on read requests
system.cpu.dtb.wrAccesses                           0                       # TLB accesses on write requests
system.cpu.dtb.rdMisses                             0                       # TLB misses on read requests
system.cpu.dtb.wrMisses                             0                       # TLB misses on write requests
system.cpu.dtb.walker.power_state.pwrStateResidencyTicks::UNDEFINED   6083231500                       # Cumulative time (in ticks) in various power states
system.cpu.dtb_walker_cache.blocked_cycles::no_mshrs            0                       # number of cycles access was blocked
system.cpu.dtb_walker_cache.blocked_cycles::no_targets            0                       # number of cycles access was blocked
system.cpu.dtb_walker_cache.blocked::no_mshrs            0                       # number of cycles access was blocked
system.cpu.dtb_walker_cache.blocked::no_targets            0                       # number of cycles access was blocked
system.cpu.dtb_walker_cache.avg_blocked_cycles::no_mshrs          nan                       # average number of cycles each access was blocked
system.cpu.dtb_walker_cache.avg_blocked_cycles::no_targets          nan                       # average number of cycles each access was blocked
system.cpu.dtb_walker_cache.replacements            0                       # number of replacements
system.cpu.dtb_walker_cache.power_state.pwrStateResidencyTicks::UNDEFINED   6083231500                       # Cumulative time (in ticks) in various power states
system.cpu.dtb_walker_cache.tags.tagsinuse            0                       # Cycle average of tags in use
system.cpu.dtb_walker_cache.tags.total_refs            0                       # Total number of references to valid blocks.
system.cpu.dtb_walker_cache.tags.sampled_refs            0                       # Sample count of references to valid blocks.
system.cpu.dtb_walker_cache.tags.avg_refs          nan                       # Average number of references to valid blocks.
system.cpu.dtb_walker_cache.tags.warmup_cycle            0                       # Cycle when the warmup percentage was hit.
system.cpu.dtb_walker_cache.tags.tag_accesses            0                       # Number of tag accesses
system.cpu.dtb_walker_cache.tags.data_accesses            0                       # Number of data accesses
system.cpu.dtb_walker_cache.tags.power_state.pwrStateResidencyTicks::UNDEFINED   6083231500                       # Cumulative time (in ticks) in various power states
system.cpu.icache.demand_hits::.switch_cpus.inst      2854485                       # number of demand (read+write) hits
system.cpu.icache.demand_hits::total          2854485                       # number of demand (read+write) hits
system.cpu.icache.overall_hits::.switch_cpus.inst      2854485                       # number of overall hits
system.cpu.icache.overall_hits::total         2854485                       # number of overall hits
system.cpu.icache.demand_misses::.switch_cpus.inst         5971                       # number of demand (read+write) misses
system.cpu.icache.demand_misses::total           5971                       # number of demand (read+write) misses
system.cpu.icache.overall_misses::.switch_cpus.inst         5971                       # number of overall misses
system.cpu.icache.overall_misses::total          5971                       # number of overall misses
system.cpu.icache.demand_miss_latency::.switch_cpus.inst    136746000                       # number of demand (read+write) miss cycles
system.cpu.icache.demand_miss_latency::total    136746000                       # number of demand (read+write) miss cycles
system.cpu.icache.overall_miss_latency::.switch_cpus.inst    136746000                       # number of overall miss cycles
system.cpu.icache.overall_miss_latency::total    136746000                       # number of overall miss cycles
system.cpu.icache.demand_accesses::.switch_cpus.inst      2860456                       # number of demand (read+write) accesses
system.cpu.icache.demand_accesses::total      2860456                       # number of demand (read+write) accesses
system.cpu.icache.overall_accesses::.switch_cpus.inst      2860456                       # number of overall (read+write) accesses
system.cpu.icache.overall_accesses::total      2860456                       # number of overall (read+write) accesses
system.cpu.icache.demand_miss_rate::.switch_cpus.inst     0.002087                       # miss rate for demand accesses
system.cpu.icache.demand_miss_rate::total     0.002087                       # miss rate for demand accesses
system.cpu.icache.overall_miss_rate::.switch_cpus.inst     0.002087                       # miss rate for overall accesses
system.cpu.icache.overall_miss_rate::total     0.002087                       # miss rate for overall accesses
system.cpu.icache.demand_avg_miss_latency::.switch_cpus.inst 22901.691509                       # average overall miss latency
system.cpu.icache.demand_avg_miss_latency::total 22901.691509                       # average overall miss latency
system.cpu.icache.overall_avg_miss_latency::.switch_cpus.inst 22901.691509                       # average overall miss latency
system.cpu.icache.overall_avg_miss_latency::total 22901.691509                       # average overall miss latency
system.cpu.icache.blocked_cycles::no_mshrs           48                       # number of cycles access was blocked
system.cpu.icache.blocked_cycles::no_targets            0                       # number of cycles access was blocked
system.cpu.icache.blocked::no_mshrs                 1                       # number of cycles access was blocked
system.cpu.icache.blocked::no_targets               0                       # number of cycles access was blocked
system.cpu.icache.avg_blocked_cycles::no_mshrs           48                       # average number of cycles each access was blocked
system.cpu.icache.avg_blocked_cycles::no_targets          nan                       # average number of cycles each access was blocked
system.cpu.icache.writebacks::.writebacks         5016                       # number of writebacks
system.cpu.icache.writebacks::total              5016                       # number of writebacks
system.cpu.icache.demand_mshr_hits::.switch_cpus.inst          936                       # number of demand (read+write) MSHR hits
system.cpu.icache.demand_mshr_hits::total          936                       # number of demand (read+write) MSHR hits
system.cpu.icache.overall_mshr_hits::.switch_cpus.inst          936                       # number of overall MSHR hits
system.cpu.icache.overall_mshr_hits::total          936                       # number of overall MSHR hits
system.cpu.icache.demand_mshr_misses::.switch_cpus.inst         5035                       # number of demand (read+write) MSHR misses
system.cpu.icache.demand_mshr_misses::total         5035                       # number of demand (read+write) MSHR misses
system.cpu.icache.overall_mshr_misses::.switch_cpus.inst         5035                       # number of overall MSHR misses
system.cpu.icache.overall_mshr_misses::total         5035                       # number of overall MSHR misses
system.cpu.icache.demand_mshr_miss_latency::.switch_cpus.inst    112249000                       # number of demand (read+write) MSHR miss cycles
system.cpu.icache.demand_mshr_miss_latency::total    112249000                       # number of demand (read+write) MSHR miss cycles
system.cpu.icache.overall_mshr_miss_latency::.switch_cpus.inst    112249000                       # number of overall MSHR miss cycles
system.cpu.icache.overall_mshr_miss_latency::total    112249000                       # number of overall MSHR miss cycles
system.cpu.icache.demand_mshr_miss_rate::.switch_cpus.inst     0.001760                       # mshr miss rate for demand accesses
system.cpu.icache.demand_mshr_miss_rate::total     0.001760                       # mshr miss rate for demand accesses
system.cpu.icache.overall_mshr_miss_rate::.switch_cpus.inst     0.001760                       # mshr miss rate for overall accesses
system.cpu.icache.overall_mshr_miss_rate::total     0.001760                       # mshr miss rate for overall accesses
system.cpu.icache.demand_avg_mshr_miss_latency::.switch_cpus.inst 22293.743793                       # average overall mshr miss latency
system.cpu.icache.demand_avg_mshr_miss_latency::total 22293.743793                       # average overall mshr miss latency
system.cpu.icache.overall_avg_mshr_miss_latency::.switch_cpus.inst 22293.743793                       # average overall mshr miss latency
system.cpu.icache.overall_avg_mshr_miss_latency::total 22293.743793                       # average overall mshr miss latency
system.cpu.icache.replacements                   5016                       # number of replacements
system.cpu.icache.ReadReq_hits::.switch_cpus.inst      2854485                       # number of ReadReq hits
system.cpu.icache.ReadReq_hits::total         2854485                       # number of ReadReq hits
system.cpu.icache.ReadReq_misses::.switch_cpus.inst         5971                       # number of ReadReq misses
system.cpu.icache.ReadReq_misses::total          5971                       # number of ReadReq misses
system.cpu.icache.ReadReq_miss_latency::.switch_cpus.inst    136746000                       # number of ReadReq miss cycles
system.cpu.icache.ReadReq_miss_latency::total    136746000                       # number of ReadReq miss cycles
system.cpu.icache.ReadReq_accesses::.switch_cpus.inst      2860456                       # number of ReadReq accesses(hits+misses)
system.cpu.icache.ReadReq_accesses::total      2860456                       # number of ReadReq accesses(hits+misses)
system.cpu.icache.ReadReq_miss_rate::.switch_cpus.inst     0.002087                       # miss rate for ReadReq accesses
system.cpu.icache.ReadReq_miss_rate::total     0.002087                       # miss rate for ReadReq accesses
system.cpu.icache.ReadReq_avg_miss_latency::.switch_cpus.inst 22901.691509                       # average ReadReq miss latency
system.cpu.icache.ReadReq_avg_miss_latency::total 22901.691509                       # average ReadReq miss latency
system.cpu.icache.ReadReq_mshr_hits::.switch_cpus.inst          936                       # number of ReadReq MSHR hits
system.cpu.icache.ReadReq_mshr_hits::total          936                       # number of ReadReq MSHR hits
system.cpu.icache.ReadReq_mshr_misses::.switch_cpus.inst         5035                       # number of ReadReq MSHR misses
system.cpu.icache.ReadReq_mshr_misses::total         5035                       # number of ReadReq MSHR misses
system.cpu.icache.ReadReq_mshr_miss_latency::.switch_cpus.inst    112249000                       # number of ReadReq MSHR miss cycles
system.cpu.icache.ReadReq_mshr_miss_latency::total    112249000                       # number of ReadReq MSHR miss cycles
system.cpu.icache.ReadReq_mshr_miss_rate::.switch_cpus.inst     0.001760                       # mshr miss rate for ReadReq accesses
system.cpu.icache.ReadReq_mshr_miss_rate::total     0.001760                       # mshr miss rate for ReadReq accesses
system.cpu.icache.ReadReq_avg_mshr_miss_latency::.switch_cpus.inst 22293.743793                       # average ReadReq mshr miss latency
system.cpu.icache.ReadReq_avg_mshr_miss_latency::total 22293.743793                       # average ReadReq mshr miss latency
system.cpu.icache.power_state.pwrStateResidencyTicks::UNDEFINED   6083231500                       # Cumulative time (in ticks) in various power states
system.cpu.icache.tags.tagsinuse          1021.415395                       # Cycle average of tags in use
system.cpu.icache.tags.total_refs             3629091                       # Total number of references to valid blocks.
system.cpu.icache.tags.sampled_refs              6040                       # Sample count of references to valid blocks.
system.cpu.icache.tags.avg_refs            600.842881                       # Average number of references to valid blocks.
system.cpu.icache.tags.warmup_cycle                 0                       # Cycle when the warmup percentage was hit.
system.cpu.icache.tags.occ_blocks::.cpu.inst   320.062701                       # Average occupied blocks per requestor
system.cpu.icache.tags.occ_blocks::.switch_cpus.inst   701.352694                       # Average occupied blocks per requestor
system.cpu.icache.tags.occ_percent::.cpu.inst     0.312561                       # Average percentage of cache occupancy
system.cpu.icache.tags.occ_percent::.switch_cpus.inst     0.684915                       # Average percentage of cache occupancy
system.cpu.icache.tags.occ_percent::total     0.997476                       # Average percentage of cache occupancy
system.cpu.icache.tags.occ_task_id_blocks::1024         1024                       # Occupied blocks per task id
system.cpu.icache.tags.age_task_id_blocks_1024::1          433                       # Occupied blocks per task id
system.cpu.icache.tags.age_task_id_blocks_1024::2          252                       # Occupied blocks per task id
system.cpu.icache.tags.age_task_id_blocks_1024::3          339                       # Occupied blocks per task id
system.cpu.icache.tags.occ_task_id_percent::1024            1                       # Percentage of cache occupancy per task id
system.cpu.icache.tags.tag_accesses           5725947                       # Number of tag accesses
system.cpu.icache.tags.data_accesses          5725947                       # Number of data accesses
system.cpu.icache.tags.power_state.pwrStateResidencyTicks::UNDEFINED   6083231500                       # Cumulative time (in ticks) in various power states
system.cpu.interrupts.clk_domain.clock           8000                       # Clock period in ticks
system.cpu.itb.rdAccesses                           0                       # TLB accesses on read requests
system.cpu.itb.wrAccesses                           0                       # TLB accesses on write requests
system.cpu.itb.rdMisses                             0                       # TLB misses on read requests
system.cpu.itb.wrMisses                             0                       # TLB misses on write requests
system.cpu.itb.walker.power_state.pwrStateResidencyTicks::UNDEFINED   6083231500                       # Cumulative time (in ticks) in various power states
system.cpu.itb_walker_cache.blocked_cycles::no_mshrs            0                       # number of cycles access was blocked
system.cpu.itb_walker_cache.blocked_cycles::no_targets            0                       # number of cycles access was blocked
system.cpu.itb_walker_cache.blocked::no_mshrs            0                       # number of cycles access was blocked
system.cpu.itb_walker_cache.blocked::no_targets            0                       # number of cycles access was blocked
system.cpu.itb_walker_cache.avg_blocked_cycles::no_mshrs          nan                       # average number of cycles each access was blocked
system.cpu.itb_walker_cache.avg_blocked_cycles::no_targets          nan                       # average number of cycles each access was blocked
system.cpu.itb_walker_cache.replacements            0                       # number of replacements
system.cpu.itb_walker_cache.power_state.pwrStateResidencyTicks::UNDEFINED   6083231500                       # Cumulative time (in ticks) in various power states
system.cpu.itb_walker_cache.tags.tagsinuse            0                       # Cycle average of tags in use
system.cpu.itb_walker_cache.tags.total_refs            0                       # Total number of references to valid blocks.
system.cpu.itb_walker_cache.tags.sampled_refs            0                       # Sample count of references to valid blocks.
system.cpu.itb_walker_cache.tags.avg_refs          nan                       # Average number of references to valid blocks.
system.cpu.itb_walker_cache.tags.warmup_cycle            0                       # Cycle when the warmup percentage was hit.
system.cpu.itb_walker_cache.tags.tag_accesses            0                       # Number of tag accesses
system.cpu.itb_walker_cache.tags.data_accesses            0                       # Number of data accesses
system.cpu.itb_walker_cache.tags.power_state.pwrStateResidencyTicks::UNDEFINED   6083231500                       # Cumulative time (in ticks) in various power states
system.cpu.power_state.pwrStateResidencyTicks::OFF   4994506500                       # Cumulative time (in ticks) in various power states
system.cpu.thread_0.numInsts                        0                       # Number of Instructions committed
system.cpu.thread_0.numOps                          0                       # Number of Ops committed
system.cpu.thread_0.numMemRefs                      0                       # Number of Memory References
system.cpu_clk_domain.clock                       500                       # Clock period in ticks
system.cpu_voltage_domain.voltage                   1                       # Voltage in Volts
system.l2.demand_hits::.switch_cpus.inst         4229                       # number of demand (read+write) hits
system.l2.demand_hits::.switch_cpus.data           42                       # number of demand (read+write) hits
system.l2.demand_hits::total                     4271                       # number of demand (read+write) hits
system.l2.overall_hits::.switch_cpus.inst         4229                       # number of overall hits
system.l2.overall_hits::.switch_cpus.data           42                       # number of overall hits
system.l2.overall_hits::total                    4271                       # number of overall hits
system.l2.demand_misses::.switch_cpus.inst          806                       # number of demand (read+write) misses
system.l2.demand_misses::.switch_cpus.data           77                       # number of demand (read+write) misses
system.l2.demand_misses::total                    883                       # number of demand (read+write) misses
system.l2.overall_misses::.switch_cpus.inst          806                       # number of overall misses
system.l2.overall_misses::.switch_cpus.data           77                       # number of overall misses
system.l2.overall_misses::total                   883                       # number of overall misses
system.l2.demand_miss_latency::.switch_cpus.inst     60180000                       # number of demand (read+write) miss cycles
system.l2.demand_miss_latency::.switch_cpus.data      5553000                       # number of demand (read+write) miss cycles
system.l2.demand_miss_latency::total         65733000                       # number of demand (read+write) miss cycles
system.l2.overall_miss_latency::.switch_cpus.inst     60180000                       # number of overall miss cycles
system.l2.overall_miss_latency::.switch_cpus.data      5553000                       # number of overall miss cycles
system.l2.overall_miss_latency::total        65733000                       # number of overall miss cycles
system.l2.demand_accesses::.switch_cpus.inst         5035                       # number of demand (read+write) accesses
system.l2.demand_accesses::.switch_cpus.data          119                       # number of demand (read+write) accesses
system.l2.demand_accesses::total                 5154                       # number of demand (read+write) accesses
system.l2.overall_accesses::.switch_cpus.inst         5035                       # number of overall (read+write) accesses
system.l2.overall_accesses::.switch_cpus.data          119                       # number of overall (read+write) accesses
system.l2.overall_accesses::total                5154                       # number of overall (read+write) accesses
system.l2.demand_miss_rate::.switch_cpus.inst     0.160079                       # miss rate for demand accesses
system.l2.demand_miss_rate::.switch_cpus.data     0.647059                       # miss rate for demand accesses
system.l2.demand_miss_rate::total            0.171323                       # miss rate for demand accesses
system.l2.overall_miss_rate::.switch_cpus.inst     0.160079                       # miss rate for overall accesses
system.l2.overall_miss_rate::.switch_cpus.data     0.647059                       # miss rate for overall accesses
system.l2.overall_miss_rate::total           0.171323                       # miss rate for overall accesses
system.l2.demand_avg_miss_latency::.switch_cpus.inst 74665.012407                       # average overall miss latency
system.l2.demand_avg_miss_latency::.switch_cpus.data 72116.883117                       # average overall miss latency
system.l2.demand_avg_miss_latency::total 74442.808607                       # average overall miss latency
system.l2.overall_avg_miss_latency::.switch_cpus.inst 74665.012407                       # average overall miss latency
system.l2.overall_avg_miss_latency::.switch_cpus.data 72116.883117                       # average overall miss latency
system.l2.overall_avg_miss_latency::total 74442.808607                       # average overall miss latency
system.l2.blocked_cycles::no_mshrs                  0                       # number of cycles access was blocked
system.l2.blocked_cycles::no_targets                0                       # number of cycles access was blocked
system.l2.blocked::no_mshrs                         0                       # number of cycles access was blocked
system.l2.blocked::no_targets                       0                       # number of cycles access was blocked
system.l2.avg_blocked_cycles::no_mshrs            nan                       # average number of cycles each access was blocked
system.l2.avg_blocked_cycles::no_targets          nan                       # average number of cycles each access was blocked
system.l2.writebacks::.writebacks                  70                       # number of writebacks
system.l2.writebacks::total                        70                       # number of writebacks
system.l2.demand_mshr_misses::.switch_cpus.inst          806                       # number of demand (read+write) MSHR misses
system.l2.demand_mshr_misses::.switch_cpus.data           77                       # number of demand (read+write) MSHR misses
system.l2.demand_mshr_misses::total               883                       # number of demand (read+write) MSHR misses
system.l2.overall_mshr_misses::.switch_cpus.inst          806                       # number of overall MSHR misses
system.l2.overall_mshr_misses::.switch_cpus.data           77                       # number of overall MSHR misses
system.l2.overall_mshr_misses::total              883                       # number of overall MSHR misses
system.l2.demand_mshr_miss_latency::.switch_cpus.inst     52120000                       # number of demand (read+write) MSHR miss cycles
system.l2.demand_mshr_miss_latency::.switch_cpus.data      4783000                       # number of demand (read+write) MSHR miss cycles
system.l2.demand_mshr_miss_latency::total     56903000                       # number of demand (read+write) MSHR miss cycles
system.l2.overall_mshr_miss_latency::.switch_cpus.inst     52120000                       # number of overall MSHR miss cycles
system.l2.overall_mshr_miss_latency::.switch_cpus.data      4783000                       # number of overall MSHR miss cycles
system.l2.overall_mshr_miss_latency::total     56903000                       # number of overall MSHR miss cycles
system.l2.demand_mshr_miss_rate::.switch_cpus.inst     0.160079                       # mshr miss rate for demand accesses
system.l2.demand_mshr_miss_rate::.switch_cpus.data     0.647059                       # mshr miss rate for demand accesses
system.l2.demand_mshr_miss_rate::total       0.171323                       # mshr miss rate for demand accesses
system.l2.overall_mshr_miss_rate::.switch_cpus.inst     0.160079                       # mshr miss rate for overall accesses
system.l2.overall_mshr_miss_rate::.switch_cpus.data     0.647059                       # mshr miss rate for overall accesses
system.l2.overall_mshr_miss_rate::total      0.171323                       # mshr miss rate for overall accesses
system.l2.demand_avg_mshr_miss_latency::.switch_cpus.inst 64665.012407                       # average overall mshr miss latency
system.l2.demand_avg_mshr_miss_latency::.switch_cpus.data 62116.883117                       # average overall mshr miss latency
system.l2.demand_avg_mshr_miss_latency::total 64442.808607                       # average overall mshr miss latency
system.l2.overall_avg_mshr_miss_latency::.switch_cpus.inst 64665.012407                       # average overall mshr miss latency
system.l2.overall_avg_mshr_miss_latency::.switch_cpus.data 62116.883117                       # average overall mshr miss latency
system.l2.overall_avg_mshr_miss_latency::total 64442.808607                       # average overall mshr miss latency
system.l2.replacements                            329                       # number of replacements
system.l2.WritebackDirty_hits::.writebacks          109                       # number of WritebackDirty hits
system.l2.WritebackDirty_hits::total              109                       # number of WritebackDirty hits
system.l2.WritebackDirty_accesses::.writebacks          109                       # number of WritebackDirty accesses(hits+misses)
system.l2.WritebackDirty_accesses::total          109                       # number of WritebackDirty accesses(hits+misses)
system.l2.WritebackClean_hits::.writebacks         5015                       # number of WritebackClean hits
system.l2.WritebackClean_hits::total             5015                       # number of WritebackClean hits
system.l2.WritebackClean_accesses::.writebacks         5015                       # number of WritebackClean accesses(hits+misses)
system.l2.WritebackClean_accesses::total         5015                       # number of WritebackClean accesses(hits+misses)
system.l2.ReadExReq_hits::.switch_cpus.data           13                       # number of ReadExReq hits
system.l2.ReadExReq_hits::total                    13                       # number of ReadExReq hits
system.l2.ReadExReq_misses::.switch_cpus.data           72                       # number of ReadExReq misses
system.l2.ReadExReq_misses::total                  72                       # number of ReadExReq misses
system.l2.ReadExReq_miss_latency::.switch_cpus.data      5175500                       # number of ReadExReq miss cycles
system.l2.ReadExReq_miss_latency::total       5175500                       # number of ReadExReq miss cycles
system.l2.ReadExReq_accesses::.switch_cpus.data           85                       # number of ReadExReq accesses(hits+misses)
system.l2.ReadExReq_accesses::total                85                       # number of ReadExReq accesses(hits+misses)
system.l2.ReadExReq_miss_rate::.switch_cpus.data     0.847059                       # miss rate for ReadExReq accesses
system.l2.ReadExReq_miss_rate::total         0.847059                       # miss rate for ReadExReq accesses
system.l2.ReadExReq_avg_miss_latency::.switch_cpus.data 71881.944444                       # average ReadExReq miss latency
system.l2.ReadExReq_avg_miss_latency::total 71881.944444                       # average ReadExReq miss latency
system.l2.ReadExReq_mshr_misses::.switch_cpus.data           72                       # number of ReadExReq MSHR misses
system.l2.ReadExReq_mshr_misses::total             72                       # number of ReadExReq MSHR misses
system.l2.ReadExReq_mshr_miss_latency::.switch_cpus.data      4455500                       # number of ReadExReq MSHR miss cycles
system.l2.ReadExReq_mshr_miss_latency::total      4455500                       # number of ReadExReq MSHR miss cycles
system.l2.ReadExReq_mshr_miss_rate::.switch_cpus.data     0.847059                       # mshr miss rate for ReadExReq accesses
system.l2.ReadExReq_mshr_miss_rate::total     0.847059                       # mshr miss rate for ReadExReq accesses
system.l2.ReadExReq_avg_mshr_miss_latency::.switch_cpus.data 61881.944444                       # average ReadExReq mshr miss latency
system.l2.ReadExReq_avg_mshr_miss_latency::total 61881.944444                       # average ReadExReq mshr miss latency
system.l2.ReadCleanReq_hits::.switch_cpus.inst         4229                       # number of ReadCleanReq hits
system.l2.ReadCleanReq_hits::total               4229                       # number of ReadCleanReq hits
system.l2.ReadCleanReq_misses::.switch_cpus.inst          806                       # number of ReadCleanReq misses
system.l2.ReadCleanReq_misses::total              806                       # number of ReadCleanReq misses
system.l2.ReadCleanReq_miss_latency::.switch_cpus.inst     60180000                       # number of ReadCleanReq miss cycles
system.l2.ReadCleanReq_miss_latency::total     60180000                       # number of ReadCleanReq miss cycles
system.l2.ReadCleanReq_accesses::.switch_cpus.inst         5035                       # number of ReadCleanReq accesses(hits+misses)
system.l2.ReadCleanReq_accesses::total           5035                       # number of ReadCleanReq accesses(hits+misses)
system.l2.ReadCleanReq_miss_rate::.switch_cpus.inst     0.160079                       # miss rate for ReadCleanReq accesses
system.l2.ReadCleanReq_miss_rate::total      0.160079                       # miss rate for ReadCleanReq accesses
system.l2.ReadCleanReq_avg_miss_latency::.switch_cpus.inst 74665.012407                       # average ReadCleanReq miss latency
system.l2.ReadCleanReq_avg_miss_latency::total 74665.012407                       # average ReadCleanReq miss latency
system.l2.ReadCleanReq_mshr_misses::.switch_cpus.inst          806                       # number of ReadCleanReq MSHR misses
[...]
system.switch_cpus.commit.committedInstType_0::FloatMisc            0      0.00%     81.93% # Class of committed instruction
system.switch_cpus.commit.committedInstType_0::FloatSqrt            0      0.00%     81.93% # Class of committed instruction
system.switch_cpus.commit.committedInstType_0::SimdAdd            0      0.00%     81.93% # Class of committed instruction
system.switch_cpus.commit.committedInstType_0::SimdAddAcc            0      0.00%     81.93% # Class of committed instruction
system.switch_cpus.commit.committedInstType_0::SimdAlu           68      0.00%     81.93% # Class of committed instruction
system.switch_cpus.commit.committedInstType_0::SimdCmp            0      0.00%     81.93% # Class of committed instruction
system.switch_cpus.commit.committedInstType_0::SimdCvt            0      0.00%     81.93% # Class of committed instruction
system.switch_cpus.commit.committedInstType_0::SimdMisc         2798      0.02%     81.95% # Class of committed instruction
system.switch_cpus.commit.committedInstType_0::SimdMult            0      0.00%     81.95% # Class of committed instruction
system.switch_cpus.commit.committedInstType_0::SimdMultAcc            0      0.00%     81.95% # Class of committed instruction
system.switch_cpus.commit.committedInstType_0::SimdShift            0      0.00%     81.95% # Class of committed instruction
system.switch_cpus.commit.committedInstType_0::SimdShiftAcc            0      0.00%     81.95% # Class of committed instruction
system.switch_cpus.commit.committedInstType_0::SimdDiv            0      0.00%     81.95% # Class of committed instruction
system.switch_cpus.commit.committedInstType_0::SimdSqrt            0      0.00%     81.95% # Class of committed instruction
system.switch_cpus.commit.committedInstType_0::SimdFloatAdd            0      0.00%     81.95% # Class of committed instruction
system.switch_cpus.commit.committedInstType_0::SimdFloatAlu            0      0.00%     81.95% # Class of committed instruction
system.switch_cpus.commit.committedInstType_0::SimdFloatCmp            0      0.00%     81.95% # Class of committed instruction
system.switch_cpus.commit.committedInstType_0::SimdFloatCvt            0      0.00%     81.95% # Class of committed instruction
system.switch_cpus.commit.committedInstType_0::SimdFloatDiv            0      0.00%     81.95% # Class of committed instruction
system.switch_cpus.commit.committedInstType_0::SimdFloatMisc            0      0.00%     81.95% # Class of committed instruction
system.switch_cpus.commit.committedInstType_0::SimdFloatMult            0      0.00%     81.95% # Class of committed instruction
system.switch_cpus.commit.committedInstType_0::SimdFloatMultAcc            0      0.00%     81.95% # Class of committed instruction
system.switch_cpus.commit.committedInstType_0::SimdFloatSqrt            0      0.00%     81.95% # Class of committed instruction
system.switch_cpus.commit.committedInstType_0::SimdReduceAdd            0      0.00%     81.95% # Class of committed instruction
system.switch_cpus.commit.committedInstType_0::SimdReduceAlu            0      0.00%     81.95% # Class of committed instruction
system.switch_cpus.commit.committedInstType_0::SimdReduceCmp            0      0.00%     81.95% # Class of committed instruction
system.switch_cpus.commit.committedInstType_0::SimdFloatReduceAdd            0      0.00%     81.95% # Class of committed instruction
system.switch_cpus.commit.committedInstType_0::SimdFloatReduceCmp            0      0.00%     81.95% # Class of committed instruction
system.switch_cpus.commit.committedInstType_0::SimdAes            0      0.00%     81.95% # Class of committed instruction
system.switch_cpus.commit.committedInstType_0::SimdAesMix            0      0.00%     81.95% # Class of committed instruction
system.switch_cpus.commit.committedInstType_0::SimdSha1Hash            0      0.00%     81.95% # Class of committed instruction
system.switch_cpus.commit.committedInstType_0::SimdSha1Hash2            0      0.00%     81.95% # Class of committed instruction
system.switch_cpus.commit.committedInstType_0::SimdSha256Hash            0      0.00%     81.95% # Class of committed instruction
system.switch_cpus.commit.committedInstType_0::SimdSha256Hash2            0      0.00%     81.95% # Class of committed instruction
system.switch_cpus.commit.committedInstType_0::SimdShaSigma2            0      0.00%     81.95% # Class of committed instruction
system.switch_cpus.commit.committedInstType_0::SimdShaSigma3            0      0.00%     81.95% # Class of committed instruction
system.switch_cpus.commit.committedInstType_0::SimdPredAlu            0      0.00%     81.95% # Class of committed instruction
system.switch_cpus.commit.committedInstType_0::MemRead      2048071     11.76%     93.71% # Class of committed instruction
system.switch_cpus.commit.committedInstType_0::MemWrite      1025864      5.89%     99.60% # Class of committed instruction
system.switch_cpus.commit.committedInstType_0::FloatMemRead        33924      0.19%     99.79% # Class of committed instruction
system.switch_cpus.commit.committedInstType_0::FloatMemWrite        35740      0.21%    100.00% # Class of committed instruction
system.switch_cpus.commit.committedInstType_0::IprAccess            0      0.00%    100.00% # Class of committed instruction
system.switch_cpus.commit.committedInstType_0::InstPrefetch            0      0.00%    100.00% # Class of committed instruction
system.switch_cpus.commit.committedInstType_0::total     17415167                       # Class of committed instruction
system.switch_cpus.commit.commitEligibleSamples       963641                       # number cycles where commit BW limit reached
system.switch_cpus.decode.idleCycles          2844023                       # Number of cycles decode is idle
system.switch_cpus.decode.blockedCycles       1366847                       # Number of cycles decode is blocked
system.switch_cpus.decode.runCycles           4855516                       # Number of cycles decode is running
system.switch_cpus.decode.unblockCycles        426965                       # Number of cycles decode is unblocking
system.switch_cpus.decode.squashCycles         431873                       # Number of cycles decode is squashing
system.switch_cpus.decode.branchResolved      2300766                       # Number of times decode resolved a  branch
system.switch_cpus.decode.branchMispred         53458                       # Number of times decode detected a branch misprediction
system.switch_cpus.decode.decodedInsts       35003697                       # Number of instructions handled by decode
system.switch_cpus.decode.squashedInsts        107488                       # Number of squashed instructions handled by decode
system.switch_cpus.dtb.rdAccesses             3276066                       # TLB accesses on read requests
system.switch_cpus.dtb.wrAccesses             1420340                       # TLB accesses on write requests
system.switch_cpus.dtb.rdMisses                    22                       # TLB misses on read requests
system.switch_cpus.dtb.wrMisses                    12                       # TLB misses on write requests
system.switch_cpus.dtb.walker.power_state.pwrStateResidencyTicks::UNDEFINED   6083231500                       # Cumulative time (in ticks) in various power states
system.switch_cpus.fetch.icacheStallCycles      3210916                       # Number of cycles fetch is stalled on an Icache miss
system.switch_cpus.fetch.insts               21844488                       # Number of instructions fetch has processed
system.switch_cpus.fetch.branches             3626204                       # Number of branches that fetch encountered
system.switch_cpus.fetch.predictedBranches      2491031                       # Number of branches that fetch has predicted taken
system.switch_cpus.fetch.cycles               6235488                       # Number of cycles fetch has run and was not squashing or blocked
system.switch_cpus.fetch.squashCycles          957610                       # Number of cycles fetch has spent squashing
system.switch_cpus.fetch.miscStallCycles            1                       # Number of cycles fetch has spent waiting on interrupts,or bad addresses, or out of MSHRs
system.switch_cpus.fetch.icacheWaitRetryStallCycles           17                       # Number of stall cycles due to full MSHR
system.switch_cpus.fetch.cacheLines           2860456                       # Number of cache lines fetched
system.switch_cpus.fetch.icacheSquashes        115731                       # Number of outstanding Icache misses that were squashed
system.switch_cpus.fetch.nisnDist::samples      9925227                       # Number of instructions fetched each cycle (Total)
system.switch_cpus.fetch.nisnDist::mean      3.776192                       # Number of instructions fetched each cycle (Total)
system.switch_cpus.fetch.nisnDist::stdev     3.507020                       # Number of instructions fetched each cycle (Total)
system.switch_cpus.fetch.nisnDist::underflows            0      0.00%      0.00% # Number of instructions fetched each cycle (Total)
system.switch_cpus.fetch.nisnDist::0          3925732     39.55%     39.55% # Number of instructions fetched each cycle (Total)
system.switch_cpus.fetch.nisnDist::1           210542      2.12%     41.67% # Number of instructions fetched each cycle (Total)
system.switch_cpus.fetch.nisnDist::2           208478      2.10%     43.77% # Number of instructions fetched each cycle (Total)
system.switch_cpus.fetch.nisnDist::3           577951      5.82%     49.60% # Number of instructions fetched each cycle (Total)
system.switch_cpus.fetch.nisnDist::4           615129      6.20%     55.80% # Number of instructions fetched each cycle (Total)
system.switch_cpus.fetch.nisnDist::5           455413      4.59%     60.38% # Number of instructions fetched each cycle (Total)
system.switch_cpus.fetch.nisnDist::6           305223      3.08%     63.46% # Number of instructions fetched each cycle (Total)
system.switch_cpus.fetch.nisnDist::7           464784      4.68%     68.14% # Number of instructions fetched each cycle (Total)
system.switch_cpus.fetch.nisnDist::8          3161975     31.86%    100.00% # Number of instructions fetched each cycle (Total)
system.switch_cpus.fetch.nisnDist::overflows            0      0.00%    100.00% # Number of instructions fetched each cycle (Total)
system.switch_cpus.fetch.nisnDist::min_value            0                       # Number of instructions fetched each cycle (Total)
system.switch_cpus.fetch.nisnDist::max_value            8                       # Number of instructions fetched each cycle (Total)
system.switch_cpus.fetch.nisnDist::total      9925227                       # Number of instructions fetched each cycle (Total)
system.switch_cpus.fetch.branchRate          0.363019                       # Number of branch fetches per cycle
system.switch_cpus.fetch.rate                2.186851                       # Number of inst fetches per cycle
system.switch_cpus.itb.rdAccesses                   0                       # TLB accesses on read requests
system.switch_cpus.itb.wrAccesses             2860456                       # TLB accesses on write requests
system.switch_cpus.itb.rdMisses                     0                       # TLB misses on read requests
system.switch_cpus.itb.wrMisses                    42                       # TLB misses on write requests
system.switch_cpus.itb.walker.power_state.pwrStateResidencyTicks::UNDEFINED   6083231500                       # Cumulative time (in ticks) in various power states
system.switch_cpus.lsq0.forwLoads              144968                       # Number of loads that had data forwarded from stores
system.switch_cpus.lsq0.squashedLoads         1589868                       # Number of loads squashed
system.switch_cpus.lsq0.ignoredResponses         4660                       # Number of memory responses ignored because the instruction is squashed
system.switch_cpus.lsq0.memOrderViolation         2408                       # Number of memory ordering violations
system.switch_cpus.lsq0.squashedStores         819726                       # Number of stores squashed
system.switch_cpus.lsq0.rescheduledLoads            8                       # Number of loads that were rescheduled
system.switch_cpus.lsq0.blockedByCache              0                       # Number of times an access to memory failed due to the cache being blocked
system.switch_cpus.power_state.pwrStateResidencyTicks::OFF   6083231500                       # Cumulative time (in ticks) in various power states
system.switch_cpus.rename.squashCycles         431873                       # Number of cycles rename is squashing
system.switch_cpus.rename.idleCycles          3205489                       # Number of cycles rename is idle
system.switch_cpus.rename.blockCycles         1185261                       # Number of cycles rename is blocking
system.switch_cpus.rename.serializeStallCycles            0                       # count of cycles rename stalledfor serializing inst
system.switch_cpus.rename.runCycles           4843118                       # Number of cycles rename is running
system.switch_cpus.rename.unblockCycles        259482                       # Number of cycles rename is unblocking
system.switch_cpus.rename.renamedInsts       32880266                       # Number of instructions processed by rename
system.switch_cpus.rename.ROBFullEvents          6350                       # Number of times rename has blocked due to ROB full
system.switch_cpus.rename.IQFullEvents          49037                       # Number of times rename has blocked due to IQ full
system.switch_cpus.rename.LQFullEvents           1156                       # Number of times rename has blocked due to LQ full
system.switch_cpus.rename.SQFullEvents         114163                       # Number of times rename has blocked due to SQ full
system.switch_cpus.rename.renamedOperands     44120646                       # Number of destination operands rename has renamed
system.switch_cpus.rename.lookups            83455557                       # Number of register rename lookups that rename has made
system.switch_cpus.rename.intLookups         51733984                       # Number of integer rename lookups
system.switch_cpus.rename.fpLookups             57117                       # Number of floating rename lookups
system.switch_cpus.rename.committedMaps      23516782                       # Number of HB maps that are committed
system.switch_cpus.rename.undoneMaps         20603688                       # Number of HB maps that are undone due to squashing
system.switch_cpus.rename.serializing               0                       # count of serializing insts renamed
system.switch_cpus.rename.tempSerializing            0                       # count of temporary serializing insts renamed
system.switch_cpus.rename.skidInsts           1009737                       # count of insts added to the skid buffer
system.switch_cpus.rob.reads                 36165576                       # The number of ROB reads
system.switch_cpus.rob.writes                59254892                       # The number of ROB writes
system.switch_cpus.thread_0.numInsts         10000001                       # Number of Instructions committed
system.switch_cpus.thread_0.numOps           17415167                       # Number of Ops committed
system.switch_cpus.thread_0.numMemRefs              0                       # Number of Memory References
system.tol2bus.trans_dist::ReadResp              5069                       # Transaction distribution
system.tol2bus.trans_dist::WritebackDirty          179                       # Transaction distribution
system.tol2bus.trans_dist::WritebackClean         5016                       # Transaction distribution
system.tol2bus.trans_dist::CleanEvict             269                       # Transaction distribution
system.tol2bus.trans_dist::ReadExReq               85                       # Transaction distribution
system.tol2bus.trans_dist::ReadExResp              85                       # Transaction distribution
system.tol2bus.trans_dist::ReadCleanReq          5035                       # Transaction distribution
system.tol2bus.trans_dist::ReadSharedReq           34                       # Transaction distribution
system.tol2bus.pkt_count_system.cpu.icache.mem_side_port::system.l2.cpu_side_port        15086                       # Packet count per connected requestor and responder (bytes)
system.tol2bus.pkt_count_system.cpu.dcache.mem_side_port::system.l2.cpu_side_port          357                       # Packet count per connected requestor and responder (bytes)
system.tol2bus.pkt_count::total                 15443                       # Packet count per connected requestor and responder (bytes)
system.tol2bus.pkt_size_system.cpu.icache.mem_side_port::system.l2.cpu_side_port       643264                       # Cumulative packet size per connected requestor and responder (bytes)
system.tol2bus.pkt_size_system.cpu.dcache.mem_side_port::system.l2.cpu_side_port        14592                       # Cumulative packet size per connected requestor and responder (bytes)
system.tol2bus.pkt_size::total                 657856                       # Cumulative packet size per connected requestor and responder (bytes)
system.tol2bus.snoops                             329                       # Total snoops (count)
system.tol2bus.snoopTraffic                      4480                       # Total snoop traffic (bytes)
system.tol2bus.snoop_fanout::samples             5483                       # Request fanout histogram
system.tol2bus.snoop_fanout::mean            0.001094                       # Request fanout histogram
system.tol2bus.snoop_fanout::stdev           0.033065                       # Request fanout histogram
system.tol2bus.snoop_fanout::underflows             0      0.00%      0.00% # Request fanout histogram
system.tol2bus.snoop_fanout::0                   5477     99.89%     99.89% # Request fanout histogram
system.tol2bus.snoop_fanout::1                      6      0.11%    100.00% # Request fanout histogram
system.tol2bus.snoop_fanout::2                      0      0.00%    100.00% # Request fanout histogram
system.tol2bus.snoop_fanout::3                      0      0.00%    100.00% # Request fanout histogram
system.tol2bus.snoop_fanout::4                      0      0.00%    100.00% # Request fanout histogram
system.tol2bus.snoop_fanout::overflows              0      0.00%    100.00% # Request fanout histogram
system.tol2bus.snoop_fanout::min_value              0                       # Request fanout histogram
system.tol2bus.snoop_fanout::max_value              1                       # Request fanout histogram
system.tol2bus.snoop_fanout::total               5483                       # Request fanout histogram
system.tol2bus.power_state.pwrStateResidencyTicks::UNDEFINED   6083231500                       # Cumulative time (in ticks) in various power states
system.tol2bus.reqLayer0.occupancy           10269500                       # Layer occupancy (ticks)
system.tol2bus.reqLayer0.utilization              0.2                       # Layer utilization (%)
system.tol2bus.respLayer0.occupancy           7552500                       # Layer occupancy (ticks)
system.tol2bus.respLayer0.utilization             0.2                       # Layer utilization (%)
system.tol2bus.respLayer1.occupancy            178500                       # Layer occupancy (ticks)
system.tol2bus.respLayer1.utilization             0.0                       # Layer utilization (%)
system.voltage_domain.voltage                       1                       # Voltage in Volts

---------- End Simulation Statistics   ----------
