
---------- Begin Simulation Statistics ----------
final_tick                                37388417000                       # Number of ticks from beginning of simulation (restored from checkpoints and never reset)
host_inst_rate                                  59259                       # Simulator instruction rate (inst/s)
host_mem_usage                                8811704                       # Number of bytes of host memory used
host_op_rate                                    93887                       # Simulator op (including micro ops) rate (op/s)
host_seconds                                   185.63                       # Real time elapsed on the host
host_tick_rate                              195850207                       # Simulator tick rate (ticks/s)
sim_freq                                 1000000000000                       # Frequency of simulated ticks
sim_insts                                    11000002                       # Number of instructions simulated
sim_ops                                      17427911                       # Number of ops (including micro ops) simulated
sim_seconds                                  0.036355                       # Number of seconds simulated
sim_ticks                                 36355084000                       # Number of ticks simulated
system.cpu.committedInsts                           0                       # Number of instructions committed
system.cpu.committedOps                             0                       # Number of ops (including micro ops) committed
system.cpu.idle_fraction                            0                       # Percentage of idle cycles
system.cpu.not_idle_fraction                        1                       # Percentage of non-idle cycles
system.cpu.numCycles                                0                       # number of cpu cycles simulated
system.cpu.numWorkItemsCompleted                    0                       # number of work items this cpu completed
system.cpu.numWorkItemsStarted                      0                       # number of work items this cpu started
system.cpu.num_busy_cycles                          0                       # Number of busy cycles
system.cpu.num_conditional_control_insts            0                       # number of instructions that are conditional controls
system.cpu.num_fp_alu_accesses                      0                       # Number of float alu accesses
system.cpu.num_fp_insts                             0                       # number of float instructions
system.cpu.num_fp_register_reads                    0                       # number of times the floating registers were read
system.cpu.num_fp_register_writes                   0                       # number of times the floating registers were written
system.cpu.num_func_calls                           0                       # number of times a function call or return occured
system.cpu.num_idle_cycles                          0                       # Number of idle cycles
system.cpu.num_int_alu_accesses                     0                       # Number of integer alu accesses
system.cpu.num_int_insts                            0                       # number of integer instructions
system.cpu.num_int_register_reads                   0                       # number of times the integer registers were read
system.cpu.num_int_register_writes                  0                       # number of times the integer registers were written
system.cpu.num_load_insts                           0                       # Number of load instructions
system.cpu.num_mem_refs                             0                       # number of memory refs
system.cpu.num_store_insts                          0                       # Number of store instructions
system.cpu.num_vec_alu_accesses                     0                       # Number of vector alu accesses
system.cpu.num_vec_insts                            0                       # number of vector instructions
system.cpu.num_vec_register_reads                   0                       # number of times the vector registers were read
system.cpu.num_vec_register_writes                  0                       # number of times the vector registers were written
system.cpu.op_class::No_OpClass                     0                       # Class of executed instruction
system.cpu.op_class::IntAlu                         0                       # Class of executed instruction
system.cpu.op_class::IntMult                        0                       # Class of executed instruction
system.cpu.op_class::IntDiv                         0                       # Class of executed instruction
system.cpu.op_class::FloatAdd                       0                       # Class of executed instruction
system.cpu.op_class::FloatCmp                       0                       # Class of executed instruction
system.cpu.op_class::FloatCvt                       0                       # Class of executed instruction
system.cpu.op_class::FloatMult                      0                       # Class of executed instruction
system.cpu.op_class::FloatMultAcc                   0                       # Class of executed instruction
system.cpu.op_class::FloatDiv                       0                       # Class of executed instruction
system.cpu.op_class::FloatMisc                      0                       # Class of executed instruction
system.cpu.op_class::FloatSqrt                      0                       # Class of executed instruction
system.cpu.op_class::SimdAdd                        0                       # Class of executed instruction
system.cpu.op_class::SimdAddAcc                     0                       # Class of executed instruction
system.cpu.op_class::SimdAlu                        0                       # Class of executed instruction
system.cpu.op_class::SimdCmp                        0                       # Class of executed instruction
system.cpu.op_class::SimdCvt                        0                       # Class of executed instruction
system.cpu.op_class::SimdMisc                       0                       # Class of executed instruction
system.cpu.op_class::SimdMult                       0                       # Class of executed instruction
system.cpu.op_class::SimdMultAcc                    0                       # Class of executed instruction
system.cpu.op_class::SimdShift                      0                       # Class of executed instruction
system.cpu.op_class::SimdShiftAcc                   0                       # Class of executed instruction
system.cpu.op_class::SimdDiv                        0                       # Class of executed instruction
system.cpu.op_class::SimdSqrt                       0                       # Class of executed instruction
system.cpu.op_class::SimdFloatAdd                   0                       # Class of executed instruction
system.cpu.op_class::SimdFloatAlu                   0                       # Class of executed instruction
system.cpu.op_class::SimdFloatCmp                   0                       # Class of executed instruction
system.cpu.op_class::SimdFloatCvt                   0                       # Class of executed instruction
system.cpu.op_class::SimdFloatDiv                   0                       # Class of executed instruction
system.cpu.op_class::SimdFloatMisc                  0                       # Class of executed instruction
system.cpu.op_class::SimdFloatMult                  0                       # Class of executed instruction
system.cpu.op_class::SimdFloatMultAcc               0                       # Class of executed instruction
system.cpu.op_class::SimdFloatSqrt                  0                       # Class of executed instruction
system.cpu.op_class::SimdReduceAdd                  0                       # Class of executed instruction
system.cpu.op_class::SimdReduceAlu                  0                       # Class of executed instruction
system.cpu.op_class::SimdReduceCmp                  0                       # Class of executed instruction
system.cpu.op_class::SimdFloatReduceAdd             0                       # Class of executed instruction
system.cpu.op_class::SimdFloatReduceCmp             0                       # Class of executed instruction
system.cpu.op_class::SimdAes                        0                       # Class of executed instruction
system.cpu.op_class::SimdAesMix                     0                       # Class of executed instruction
system.cpu.op_class::SimdSha1Hash                   0                       # Class of executed instruction
system.cpu.op_class::SimdSha1Hash2                  0                       # Class of executed instruction
system.cpu.op_class::SimdSha256Hash                 0                       # Class of executed instruction
system.cpu.op_class::SimdSha256Hash2                0                       # Class of executed instruction
system.cpu.op_class::SimdShaSigma2                  0                       # Class of executed instruction
system.cpu.op_class::SimdShaSigma3                  0                       # Class of executed instruction
system.cpu.op_class::SimdPredAlu                    0                       # Class of executed instruction
system.cpu.op_class::MemRead                        0                       # Class of executed instruction
system.cpu.op_class::MemWrite                       0                       # Class of executed instruction
system.cpu.op_class::FloatMemRead                   0                       # Class of executed instruction
system.cpu.op_class::FloatMemWrite                  0                       # Class of executed instruction
system.cpu.op_class::IprAccess                      0                       # Class of executed instruction
system.cpu.op_class::InstPrefetch                   0                       # Class of executed instruction
system.cpu.op_class::total                          0                       # Class of executed instruction
system.cpu.workload.numSyscalls                     7                       # Number of system calls
system.membus.snoop_filter.hit_multi_requests            0                       # Number of requests hitting in the snoop filter with multiple (>1) holders of the requested data.
system.membus.snoop_filter.hit_multi_snoops            0                       # Number of snoops hitting in the snoop filter with multiple (>1) holders of the requested data.
system.membus.snoop_filter.hit_single_requests       358131                       # Number of requests hitting in the snoop filter with a single holder of the requested data.
system.membus.snoop_filter.hit_single_snoops            0                       # Number of snoops hitting in the snoop filter with a single holder of the requested data.
system.membus.snoop_filter.tot_requests        720382                       # Total number of requests made to the snoop filter.
system.membus.snoop_filter.tot_snoops               0                       # Total number of snoops made to the snoop filter.
system.switch_cpus.cc_regfile_reads          19667254                       # number of cc regfile reads
system.switch_cpus.cc_regfile_writes         20057867                       # number of cc regfile writes
system.switch_cpus.committedInsts            10000001                       # Number of Instructions Simulated
system.switch_cpus.committedOps              15621644                       # Number of Ops (including micro ops) Simulated
system.switch_cpus.cpi                       7.271016                       # CPI: Cycles Per Instruction
system.switch_cpus.cpi_total                 7.271016                       # CPI: Total CPI of All Threads
system.switch_cpus.fp_regfile_reads            451419                       # number of floating regfile reads
system.switch_cpus.fp_regfile_writes           498830                       # number of floating regfile writes
system.switch_cpus.idleCycles                   37438                       # Total number of cycles that the CPU has spent unscheduled due to idling
system.switch_cpus.iew.branchMispredicts       356681                       # Number of branch mispredicts detected at execute
system.switch_cpus.iew.exec_branches          3882547                       # Number of branches executed
system.switch_cpus.iew.exec_nop                     0                       # number of nop insts executed
system.switch_cpus.iew.exec_rate             0.571042                       # Inst execution rate
system.switch_cpus.iew.exec_refs              8498412                       # number of memory reference insts executed
system.switch_cpus.iew.exec_stores            3754092                       # Number of stores executed
system.switch_cpus.iew.exec_swp                     0                       # number of swp insts executed
system.switch_cpus.iew.iewBlockCycles         3775579                       # Number of cycles IEW is blocking
system.switch_cpus.iew.iewDispLoadInsts       5220960                       # Number of dispatched load instructions
system.switch_cpus.iew.iewDispNonSpecInsts           31                       # Number of dispatched non-speculative instructions
system.switch_cpus.iew.iewDispSquashedInsts        65662                       # Number of squashed instructions skipped by dispatch
system.switch_cpus.iew.iewDispStoreInsts      4302233                       # Number of dispatched store instructions
system.switch_cpus.iew.iewDispatchedInsts     47372816                       # Number of instructions dispatched to IQ
system.switch_cpus.iew.iewExecLoadInsts       4744320                       # Number of load instructions executed
system.switch_cpus.iew.iewExecSquashedInsts       690357                       # Number of squashed instructions skipped in execute
system.switch_cpus.iew.iewExecutedInsts      41520549                       # Number of executed instructions
system.switch_cpus.iew.iewIQFullEvents           2170                       # Number of times the IQ has become full, causing a stall
system.switch_cpus.iew.iewIdleCycles                0                       # Number of cycles IEW is idle
system.switch_cpus.iew.iewLSQFullEvents         31017                       # Number of times the LSQ has become full, causing a stall
system.switch_cpus.iew.iewSquashCycles         415689                       # Number of cycles IEW is squashing
system.switch_cpus.iew.iewUnblockCycles         32211                       # Number of cycles IEW is unblocking
system.switch_cpus.iew.memOrderViolationEvents         1569                       # Number of memory order violations
system.switch_cpus.iew.predictedNotTakenIncorrect       186886                       # Number of branches that were predicted not taken incorrectly
system.switch_cpus.iew.predictedTakenIncorrect       169795                       # Number of branches that were predicted taken incorrectly
system.switch_cpus.iew.wb_consumers          49094940                       # num instructions consuming a value
system.switch_cpus.iew.wb_count              39086917                       # cumulative count of insts written-back
system.switch_cpus.iew.wb_fanout             0.636289                       # average fanout of values written-back
system.switch_cpus.iew.wb_producers          31238571                       # num instructions producing a value
system.switch_cpus.iew.wb_rate               0.537572                       # insts written-back per cycle
system.switch_cpus.iew.wb_sent               41359675                       # cumulative count of insts sent to commit
system.switch_cpus.int_regfile_reads         60268651                       # number of integer regfile reads
system.switch_cpus.int_regfile_writes        33267753                       # number of integer regfile writes
system.switch_cpus.ipc                       0.137532                       # IPC: Instructions Per Cycle
system.switch_cpus.ipc_total                 0.137532                       # IPC: Total IPC of All Threads
system.switch_cpus.iq.FU_type_0::No_OpClass       220189      0.52%      0.52% # Type of FU issued
system.switch_cpus.iq.FU_type_0::IntAlu      32867530     77.87%     78.39% # Type of FU issued
system.switch_cpus.iq.FU_type_0::IntMult       269023      0.64%     79.02% # Type of FU issued
system.switch_cpus.iq.FU_type_0::IntDiv             7      0.00%     79.02% # Type of FU issued
system.switch_cpus.iq.FU_type_0::FloatAdd        82961      0.20%     79.22% # Type of FU issued
system.switch_cpus.iq.FU_type_0::FloatCmp            0      0.00%     79.22% # Type of FU issued
system.switch_cpus.iq.FU_type_0::FloatCvt            0      0.00%     79.22% # Type of FU issued
system.switch_cpus.iq.FU_type_0::FloatMult            0      0.00%     79.22% # Type of FU issued
system.switch_cpus.iq.FU_type_0::FloatMultAcc            0      0.00%     79.22% # Type of FU issued
system.switch_cpus.iq.FU_type_0::FloatDiv            0      0.00%     79.22% # Type of FU issued
system.switch_cpus.iq.FU_type_0::FloatMisc            0      0.00%     79.22% # Type of FU issued
system.switch_cpus.iq.FU_type_0::FloatSqrt            0      0.00%     79.22% # Type of FU issued
system.switch_cpus.iq.FU_type_0::SimdAdd            0      0.00%     79.22% # Type of FU issued
system.switch_cpus.iq.FU_type_0::SimdAddAcc            0      0.00%     79.22% # Type of FU issued
system.switch_cpus.iq.FU_type_0::SimdAlu          460      0.00%     79.22% # Type of FU issued
system.switch_cpus.iq.FU_type_0::SimdCmp            0      0.00%     79.22% # Type of FU issued
system.switch_cpus.iq.FU_type_0::SimdCvt           16      0.00%     79.22% # Type of FU issued
system.switch_cpus.iq.FU_type_0::SimdMisc        31614      0.07%     79.30% # Type of FU issued
system.switch_cpus.iq.FU_type_0::SimdMult            0      0.00%     79.30% # Type of FU issued
system.switch_cpus.iq.FU_type_0::SimdMultAcc            0      0.00%     79.30% # Type of FU issued
system.switch_cpus.iq.FU_type_0::SimdShift            0      0.00%     79.30% # Type of FU issued
system.switch_cpus.iq.FU_type_0::SimdShiftAcc            0      0.00%     79.30% # Type of FU issued
system.switch_cpus.iq.FU_type_0::SimdDiv            0      0.00%     79.30% # Type of FU issued
system.switch_cpus.iq.FU_type_0::SimdSqrt            0      0.00%     79.30% # Type of FU issued
system.switch_cpus.iq.FU_type_0::SimdFloatAdd            0      0.00%     79.30% # Type of FU issued
system.switch_cpus.iq.FU_type_0::SimdFloatAlu            0      0.00%     79.30% # Type of FU issued
system.switch_cpus.iq.FU_type_0::SimdFloatCmp            0      0.00%     79.30% # Type of FU issued
system.switch_cpus.iq.FU_type_0::SimdFloatCvt            0      0.00%     79.30% # Type of FU issued
system.switch_cpus.iq.FU_type_0::SimdFloatDiv            0      0.00%     79.30% # Type of FU issued
system.switch_cpus.iq.FU_type_0::SimdFloatMisc            0      0.00%     79.30% # Type of FU issued
system.switch_cpus.iq.FU_type_0::SimdFloatMult            0      0.00%     79.30% # Type of FU issued
system.switch_cpus.iq.FU_type_0::SimdFloatMultAcc            0      0.00%     79.30% # Type of FU issued
system.switch_cpus.iq.FU_type_0::SimdFloatSqrt            0      0.00%     79.30% # Type of FU issued
system.switch_cpus.iq.FU_type_0::SimdReduceAdd            0      0.00%     79.30% # Type of FU issued
system.switch_cpus.iq.FU_type_0::SimdReduceAlu            0      0.00%     79.30% # Type of FU issued
system.switch_cpus.iq.FU_type_0::SimdReduceCmp            0      0.00%     79.30% # Type of FU issued
system.switch_cpus.iq.FU_type_0::SimdFloatReduceAdd            0      0.00%     79.30% # Type of FU issued
system.switch_cpus.iq.FU_type_0::SimdFloatReduceCmp            0      0.00%     79.30% # Type of FU issued
system.switch_cpus.iq.FU_type_0::SimdAes            0      0.00%     79.30% # Type of FU issued
system.switch_cpus.iq.FU_type_0::SimdAesMix            0      0.00%     79.30% # Type of FU issued
system.switch_cpus.iq.FU_type_0::SimdSha1Hash            0      0.00%     79.30% # Type of FU issued
system.switch_cpus.iq.FU_type_0::SimdSha1Hash2            0      0.00%     79.30% # Type of FU issued
system.switch_cpus.iq.FU_type_0::SimdSha256Hash            0      0.00%     79.30% # Type of FU issued
system.switch_cpus.iq.FU_type_0::SimdSha256Hash2            0      0.00%     79.30% # Type of FU issued
system.switch_cpus.iq.FU_type_0::SimdShaSigma2            0      0.00%     79.30% # Type of FU issued
system.switch_cpus.iq.FU_type_0::SimdShaSigma3            0      0.00%     79.30% # Type of FU issued
system.switch_cpus.iq.FU_type_0::SimdPredAlu            0      0.00%     79.30% # Type of FU issued
system.switch_cpus.iq.FU_type_0::MemRead      4393028     10.41%     89.70% # Type of FU issued
system.switch_cpus.iq.FU_type_0::MemWrite      3460604      8.20%     97.90% # Type of FU issued
system.switch_cpus.iq.FU_type_0::FloatMemRead       467003      1.11%     99.01% # Type of FU issued
system.switch_cpus.iq.FU_type_0::FloatMemWrite       418475      0.99%    100.00% # Type of FU issued
system.switch_cpus.iq.FU_type_0::IprAccess            0      0.00%    100.00% # Type of FU issued
system.switch_cpus.iq.FU_type_0::InstPrefetch            0      0.00%    100.00% # Type of FU issued
system.switch_cpus.iq.FU_type_0::total       42210910                       # Type of FU issued
system.switch_cpus.iq.fp_alu_accesses         1149893                       # Number of floating point alu accesses
system.switch_cpus.iq.fp_inst_queue_reads      2163913                       # Number of floating instruction queue reads
system.switch_cpus.iq.fp_inst_queue_wakeup_accesses       900223                       # Number of floating instruction queue wakeup accesses
system.switch_cpus.iq.fp_inst_queue_writes      2106294                       # Number of floating instruction queue writes
system.switch_cpus.iq.fu_busy_cnt              535342                       # FU busy when requested
system.switch_cpus.iq.fu_busy_rate           0.012683                       # FU busy rate (busy events/executed inst)
system.switch_cpus.iq.fu_full::No_OpClass            0      0.00%      0.00% # attempts to use FU when none available
system.switch_cpus.iq.fu_full::IntAlu          301570     56.33%     56.33% # attempts to use FU when none available
system.switch_cpus.iq.fu_full::IntMult              0      0.00%     56.33% # attempts to use FU when none available
system.switch_cpus.iq.fu_full::IntDiv               0      0.00%     56.33% # attempts to use FU when none available
system.switch_cpus.iq.fu_full::FloatAdd             0      0.00%     56.33% # attempts to use FU when none available
system.switch_cpus.iq.fu_full::FloatCmp             0      0.00%     56.33% # attempts to use FU when none available
system.switch_cpus.iq.fu_full::FloatCvt             0      0.00%     56.33% # attempts to use FU when none available
system.switch_cpus.iq.fu_full::FloatMult            0      0.00%     56.33% # attempts to use FU when none available
system.switch_cpus.iq.fu_full::FloatMultAcc            0      0.00%     56.33% # attempts to use FU when none available
system.switch_cpus.iq.fu_full::FloatDiv             0      0.00%     56.33% # attempts to use FU when none available
system.switch_cpus.iq.fu_full::FloatMisc            0      0.00%     56.33% # attempts to use FU when none available
system.switch_cpus.iq.fu_full::FloatSqrt            0      0.00%     56.33% # attempts to use FU when none available
system.switch_cpus.iq.fu_full::SimdAdd              0      0.00%     56.33% # attempts to use FU when none available
system.switch_cpus.iq.fu_full::SimdAddAcc            0      0.00%     56.33% # attempts to use FU when none available
system.switch_cpus.iq.fu_full::SimdAlu              1      0.00%     56.33% # attempts to use FU when none available
system.switch_cpus.iq.fu_full::SimdCmp              0      0.00%     56.33% # attempts to use FU when none available
system.switch_cpus.iq.fu_full::SimdCvt              0      0.00%     56.33% # attempts to use FU when none available
system.switch_cpus.iq.fu_full::SimdMisc             0      0.00%     56.33% # attempts to use FU when none available
system.switch_cpus.iq.fu_full::SimdMult             0      0.00%     56.33% # attempts to use FU when none available
system.switch_cpus.iq.fu_full::SimdMultAcc            0      0.00%     56.33% # attempts to use FU when none available
system.switch_cpus.iq.fu_full::SimdShift            0      0.00%     56.33% # attempts to use FU when none available
system.switch_cpus.iq.fu_full::SimdShiftAcc            0      0.00%     56.33% # attempts to use FU when none available
system.switch_cpus.iq.fu_full::SimdDiv              0      0.00%     56.33% # attempts to use FU when none available
system.switch_cpus.iq.fu_full::SimdSqrt             0      0.00%     56.33% # attempts to use FU when none available
system.switch_cpus.iq.fu_full::SimdFloatAdd            0      0.00%     56.33% # attempts to use FU when none available
system.switch_cpus.iq.fu_full::SimdFloatAlu            0      0.00%     56.33% # attempts to use FU when none available
system.switch_cpus.iq.fu_full::SimdFloatCmp            0      0.00%     56.33% # attempts to use FU when none available
system.switch_cpus.iq.fu_full::SimdFloatCvt            0      0.00%     56.33% # attempts to use FU when none available
system.switch_cpus.iq.fu_full::SimdFloatDiv            0      0.00%     56.33% # attempts to use FU when none available
system.switch_cpus.iq.fu_full::SimdFloatMisc            0      0.00%     56.33% # attempts to use FU when none available
system.switch_cpus.iq.fu_full::SimdFloatMult            0      0.00%     56.33% # attempts to use FU when none available
system.switch_cpus.iq.fu_full::SimdFloatMultAcc            0      0.00%     56.33% # attempts to use FU when none available
system.switch_cpus.iq.fu_full::SimdFloatSqrt            0      0.00%     56.33% # attempts to use FU when none available
system.switch_cpus.iq.fu_full::SimdReduceAdd            0      0.00%     56.33% # attempts to use FU when none available
system.switch_cpus.iq.fu_full::SimdReduceAlu            0      0.00%     56.33% # attempts to use FU when none available
system.switch_cpus.iq.fu_full::SimdReduceCmp            0      0.00%     56.33% # attempts to use FU when none available
system.switch_cpus.iq.fu_full::SimdFloatReduceAdd            0      0.00%     56.33% # attempts to use FU when none available
system.switch_cpus.iq.fu_full::SimdFloatReduceCmp            0      0.00%     56.33% # attempts to use FU when none available
system.switch_cpus.iq.fu_full::SimdAes              0      0.00%     56.33% # attempts to use FU when none available
system.switch_cpus.iq.fu_full::SimdAesMix            0      0.00%     56.33% # attempts to use FU when none available
system.switch_cpus.iq.fu_full::SimdSha1Hash            0      0.00%     56.33% # attempts to use FU when none available
system.switch_cpus.iq.fu_full::SimdSha1Hash2            0      0.00%     56.33% # attempts to use FU when none available
system.switch_cpus.iq.fu_full::SimdSha256Hash            0      0.00%     56.33% # attempts to use FU when none available
system.switch_cpus.iq.fu_full::SimdSha256Hash2            0      0.00%     56.33% # attempts to use FU when none available
system.switch_cpus.iq.fu_full::SimdShaSigma2            0      0.00%     56.33% # attempts to use FU when none available
system.switch_cpus.iq.fu_full::SimdShaSigma3            0      0.00%     56.33% # attempts to use FU when none available
system.switch_cpus.iq.fu_full::SimdPredAlu            0      0.00%     56.33% # attempts to use FU when none available
system.switch_cpus.iq.fu_full::MemRead          21184      3.96%     60.29% # attempts to use FU when none available
system.switch_cpus.iq.fu_full::MemWrite         64379     12.03%     72.32% # attempts to use FU when none available
system.switch_cpus.iq.fu_full::FloatMemRead       118648     22.16%     94.48% # attempts to use FU when none available
system.switch_cpus.iq.fu_full::FloatMemWrite        29560      5.52%    100.00% # attempts to use FU when none available
system.switch_cpus.iq.fu_full::IprAccess            0      0.00%    100.00% # attempts to use FU when none available
system.switch_cpus.iq.fu_full::InstPrefetch            0      0.00%    100.00% # attempts to use FU when none available
system.switch_cpus.iq.int_alu_accesses       41376170                       # Number of integer alu accesses
system.switch_cpus.iq.int_inst_queue_reads    155506415                       # Number of integer instruction queue reads
system.switch_cpus.iq.int_inst_queue_wakeup_accesses     38186694                       # Number of integer instruction queue wakeup accesses
system.switch_cpus.iq.int_inst_queue_writes     77019177                       # Number of integer instruction queue writes
system.switch_cpus.iq.iqInstsAdded           47369678                       # Number of instructions added to the IQ (excludes non-spec)
system.switch_cpus.iq.iqInstsIssued          42210910                       # Number of instructions issued
system.switch_cpus.iq.iqNonSpecInstsAdded         3138                       # Number of non-speculative instructions added to the IQ
system.switch_cpus.iq.iqSquashedInstsExamined     31751150                       # Number of squashed instructions iterated over during squash; mainly for profiling
system.switch_cpus.iq.iqSquashedInstsIssued        40440                       # Number of squashed instructions issued
system.switch_cpus.iq.iqSquashedNonSpecRemoved         3013                       # Number of squashed non-spec instructions that were removed
system.switch_cpus.iq.iqSquashedOperandsExamined     25621970                       # Number of squashed operands that are examined and possibly removed from graph
system.switch_cpus.iq.issued_per_cycle::samples     72672730                       # Number of insts issued each cycle
system.switch_cpus.iq.issued_per_cycle::mean     0.580836                       # Number of insts issued each cycle
system.switch_cpus.iq.issued_per_cycle::stdev     1.616347                       # Number of insts issued each cycle
system.switch_cpus.iq.issued_per_cycle::underflows            0      0.00%      0.00% # Number of insts issued each cycle
system.switch_cpus.iq.issued_per_cycle::0     62322233     85.76%     85.76% # Number of insts issued each cycle
system.switch_cpus.iq.issued_per_cycle::1      1153427      1.59%     87.34% # Number of insts issued each cycle
system.switch_cpus.iq.issued_per_cycle::2      1280571      1.76%     89.11% # Number of insts issued each cycle
system.switch_cpus.iq.issued_per_cycle::3      2531980      3.48%     92.59% # Number of insts issued each cycle
system.switch_cpus.iq.issued_per_cycle::4      1083803      1.49%     94.08% # Number of insts issued each cycle
system.switch_cpus.iq.issued_per_cycle::5      1017450      1.40%     95.48% # Number of insts issued each cycle
system.switch_cpus.iq.issued_per_cycle::6      2117018      2.91%     98.40% # Number of insts issued each cycle
system.switch_cpus.iq.issued_per_cycle::7       554153      0.76%     99.16% # Number of insts issued each cycle
system.switch_cpus.iq.issued_per_cycle::8       612095      0.84%    100.00% # Number of insts issued each cycle
system.switch_cpus.iq.issued_per_cycle::overflows            0      0.00%    100.00% # Number of insts issued each cycle
system.switch_cpus.iq.issued_per_cycle::min_value            0                       # Number of insts issued each cycle
system.switch_cpus.iq.issued_per_cycle::max_value            8                       # Number of insts issued each cycle
system.switch_cpus.iq.issued_per_cycle::total     72672730                       # Number of insts issued each cycle
system.switch_cpus.iq.rate                   0.580537                       # Inst issue rate
system.switch_cpus.iq.vec_alu_accesses              0                       # Number of vector alu accesses
system.switch_cpus.iq.vec_inst_queue_reads            0                       # Number of vector instruction queue reads
system.switch_cpus.iq.vec_inst_queue_wakeup_accesses            0                       # Number of vector instruction queue wakeup accesses
system.switch_cpus.iq.vec_inst_queue_writes            0                       # Number of vector instruction queue writes
system.switch_cpus.memDep0.conflictingLoads       441009                       # Number of conflicting loads.
system.switch_cpus.memDep0.conflictingStores       105029                       # Number of conflicting stores.
system.switch_cpus.memDep0.insertedLoads      5220960                       # Number of loads inserted to the mem dependence unit.
system.switch_cpus.memDep0.insertedStores      4302233                       # Number of stores inserted to the mem dependence unit.
system.switch_cpus.misc_regfile_reads        16688908                       # number of misc regfile reads
system.switch_cpus.numCycles                 72710168                       # number of cpu cycles simulated
system.switch_cpus.numWorkItemsCompleted            0                       # number of work items this cpu completed
system.switch_cpus.numWorkItemsStarted              0                       # number of work items this cpu started
system.switch_cpus.timesIdled                     312                       # Number of times that the entire CPU went into an idle state and unscheduled itself
system.tol2bus.snoop_filter.hit_multi_requests            4                       # Number of requests hitting in the snoop filter with multiple (>1) holders of the requested data.
system.tol2bus.snoop_filter.hit_multi_snoops            0                       # Number of snoops hitting in the snoop filter with multiple (>1) holders of the requested data.
system.tol2bus.snoop_filter.hit_single_requests       367240                       # Number of requests hitting in the snoop filter with a single holder of the requested data.
system.tol2bus.snoop_filter.hit_single_snoops          162                       # Number of snoops hitting in the snoop filter with a single holder of the requested data.
system.tol2bus.snoop_filter.tot_requests       734643                       # Total number of requests made to the snoop filter.
system.tol2bus.snoop_filter.tot_snoops            162                       # Total number of snoops made to the snoop filter.
system.clk_domain.clock                          1000                       # Clock period in ticks
system.cpu.branchPred.lookups                       0                       # Number of BP lookups
system.cpu.branchPred.condPredicted                 0                       # Number of conditional branches predicted
system.cpu.branchPred.condIncorrect                 0                       # Number of conditional branches incorrect
system.cpu.branchPred.BTBLookups                    0                       # Number of BTB lookups
system.cpu.branchPred.BTBHits                       0                       # Number of BTB hits
system.cpu.branchPred.BTBHitPct                   nan                       # BTB Hit Percentage
system.cpu.branchPred.RASUsed                       0                       # Number of times the RAS was used to get a target.
system.cpu.branchPred.RASIncorrect                  0                       # Number of incorrect RAS predictions.
system.cpu.branchPred.indirectLookups               0                       # Number of indirect predictor lookups.
system.cpu.branchPred.indirectHits                  0                       # Number of indirect target hits.
system.cpu.branchPred.indirectMisses                0                       # Number of indirect misses.
system.cpu.branchPred.indirectMispredicted            0                       # Number of mispredicted indirect branches.
system.cpu.dcache.demand_hits::.switch_cpus.data      5036233                       # number of demand (read+write) hits
system.cpu.dcache.demand_hits::total          5036233                       # number of demand (read+write) hits
system.cpu.dcache.overall_hits::.switch_cpus.data      5130211                       # number of overall hits
system.cpu.dcache.overall_hits::total         5130211                       # number of overall hits
system.cpu.dcache.demand_misses::.switch_cpus.data       370578                       # number of demand (read+write) misses
system.cpu.dcache.demand_misses::total         370578                       # number of demand (read+write) misses
system.cpu.dcache.overall_misses::.switch_cpus.data       372986                       # number of overall misses
system.cpu.dcache.overall_misses::total        372986                       # number of overall misses
system.cpu.dcache.demand_miss_latency::.switch_cpus.data  29455070497                       # number of demand (read+write) miss cycles
system.cpu.dcache.demand_miss_latency::total  29455070497                       # number of demand (read+write) miss cycles
system.cpu.dcache.overall_miss_latency::.switch_cpus.data  29455070497                       # number of overall miss cycles
system.cpu.dcache.overall_miss_latency::total  29455070497                       # number of overall miss cycles
system.cpu.dcache.demand_accesses::.switch_cpus.data      5406811                       # number of demand (read+write) accesses
system.cpu.dcache.demand_accesses::total      5406811                       # number of demand (read+write) accesses
system.cpu.dcache.overall_accesses::.switch_cpus.data      5503197                       # number of overall (read+write) accesses
system.cpu.dcache.overall_accesses::total      5503197                       # number of overall (read+write) accesses
system.cpu.dcache.demand_miss_rate::.switch_cpus.data     0.068539                       # miss rate for demand accesses
system.cpu.dcache.demand_miss_rate::total     0.068539                       # miss rate for demand accesses
system.cpu.dcache.overall_miss_rate::.switch_cpus.data     0.067776                       # miss rate for overall accesses
system.cpu.dcache.overall_miss_rate::total     0.067776                       # miss rate for overall accesses
system.cpu.dcache.demand_avg_miss_latency::.switch_cpus.data 79484.131538                       # average overall miss latency
system.cpu.dcache.demand_avg_miss_latency::total 79484.131538                       # average overall miss latency
system.cpu.dcache.overall_avg_miss_latency::.switch_cpus.data 78970.981477                       # average overall miss latency
system.cpu.dcache.overall_avg_miss_latency::total 78970.981477                       # average overall miss latency
system.cpu.dcache.blocked_cycles::no_mshrs          589                       # number of cycles access was blocked
system.cpu.dcache.blocked_cycles::no_targets          565                       # number of cycles access was blocked
system.cpu.dcache.blocked::no_mshrs                24                       # number of cycles access was blocked
system.cpu.dcache.blocked::no_targets               7                       # number of cycles access was blocked
system.cpu.dcache.avg_blocked_cycles::no_mshrs    24.541667                       # average number of cycles each access was blocked
system.cpu.dcache.avg_blocked_cycles::no_targets    80.714286                       # average number of cycles each access was blocked
system.cpu.dcache.writebacks::.writebacks       364370                       # number of writebacks
system.cpu.dcache.writebacks::total            364370                       # number of writebacks
system.cpu.dcache.demand_mshr_hits::.switch_cpus.data         4451                       # number of demand (read+write) MSHR hits
system.cpu.dcache.demand_mshr_hits::total         4451                       # number of demand (read+write) MSHR hits
system.cpu.dcache.overall_mshr_hits::.switch_cpus.data         4451                       # number of overall MSHR hits
system.cpu.dcache.overall_mshr_hits::total         4451                       # number of overall MSHR hits
system.cpu.dcache.demand_mshr_misses::.switch_cpus.data       366127                       # number of demand (read+write) MSHR misses
system.cpu.dcache.demand_mshr_misses::total       366127                       # number of demand (read+write) MSHR misses
system.cpu.dcache.overall_mshr_misses::.switch_cpus.data       366815                       # number of overall MSHR misses
system.cpu.dcache.overall_mshr_misses::total       366815                       # number of overall MSHR misses
system.cpu.dcache.demand_mshr_miss_latency::.switch_cpus.data  29009514497                       # number of demand (read+write) MSHR miss cycles
system.cpu.dcache.demand_mshr_miss_latency::total  29009514497                       # number of demand (read+write) MSHR miss cycles
system.cpu.dcache.overall_mshr_miss_latency::.switch_cpus.data  29052007997                       # number of overall MSHR miss cycles
system.cpu.dcache.overall_mshr_miss_latency::total  29052007997                       # number of overall MSHR miss cycles
system.cpu.dcache.demand_mshr_miss_rate::.switch_cpus.data     0.067716                       # mshr miss rate for demand accesses
system.cpu.dcache.demand_mshr_miss_rate::total     0.067716                       # mshr miss rate for demand accesses
system.cpu.dcache.overall_mshr_miss_rate::.switch_cpus.data     0.066655                       # mshr miss rate for overall accesses
system.cpu.dcache.overall_mshr_miss_rate::total     0.066655                       # mshr miss rate for overall accesses
system.cpu.dcache.demand_avg_mshr_miss_latency::.switch_cpus.data 79233.474988                       # average overall mshr miss latency
system.cpu.dcache.demand_avg_mshr_miss_latency::total 79233.474988                       # average overall mshr miss latency
system.cpu.dcache.overall_avg_mshr_miss_latency::.switch_cpus.data 79200.708796                       # average overall mshr miss latency
system.cpu.dcache.overall_avg_mshr_miss_latency::total 79200.708796                       # average overall mshr miss latency
system.cpu.dcache.replacements                 366814                       # number of replacements
system.cpu.dcache.ReadReq_hits::.switch_cpus.data      4394479                       # number of ReadReq hits
system.cpu.dcache.ReadReq_hits::total         4394479                       # number of ReadReq hits
system.cpu.dcache.ReadReq_misses::.switch_cpus.data         8741                       # number of ReadReq misses
system.cpu.dcache.ReadReq_misses::total          8741                       # number of ReadReq misses
system.cpu.dcache.ReadReq_miss_latency::.switch_cpus.data    148521500                       # number of ReadReq miss cycles
system.cpu.dcache.ReadReq_miss_latency::total    148521500                       # number of ReadReq miss cycles
system.cpu.dcache.ReadReq_accesses::.switch_cpus.data      4403220                       # number of ReadReq accesses(hits+misses)
system.cpu.dcache.ReadReq_accesses::total      4403220                       # number of ReadReq accesses(hits+misses)
system.cpu.dcache.ReadReq_miss_rate::.switch_cpus.data     0.001985                       # miss rate for ReadReq accesses
system.cpu.dcache.ReadReq_miss_rate::total     0.001985                       # miss rate for ReadReq accesses
system.cpu.dcache.ReadReq_avg_miss_latency::.switch_cpus.data 16991.362544                       # average ReadReq miss latency
system.cpu.dcache.ReadReq_avg_miss_latency::total 16991.362544                       # average ReadReq miss latency
system.cpu.dcache.ReadReq_mshr_hits::.switch_cpus.data         4442                       # number of ReadReq MSHR hits
system.cpu.dcache.ReadReq_mshr_hits::total         4442                       # number of ReadReq MSHR hits
system.cpu.dcache.ReadReq_mshr_misses::.switch_cpus.data         4299                       # number of ReadReq MSHR misses
system.cpu.dcache.ReadReq_mshr_misses::total         4299                       # number of ReadReq MSHR misses
system.cpu.dcache.ReadReq_mshr_miss_latency::.switch_cpus.data     65345500                       # number of ReadReq MSHR miss cycles
system.cpu.dcache.ReadReq_mshr_miss_latency::total     65345500                       # number of ReadReq MSHR miss cycles
system.cpu.dcache.ReadReq_mshr_miss_rate::.switch_cpus.data     0.000976                       # mshr miss rate for ReadReq accesses
system.cpu.dcache.ReadReq_mshr_miss_rate::total     0.000976                       # mshr miss rate for ReadReq accesses
system.cpu.dcache.ReadReq_avg_mshr_miss_latency::.switch_cpus.data 15200.162829                       # average ReadReq mshr miss latency
system.cpu.dcache.ReadReq_avg_mshr_miss_latency::total 15200.162829                       # average ReadReq mshr miss latency
system.cpu.dcache.WriteReq_hits::.switch_cpus.data       641754                       # number of WriteReq hits
system.cpu.dcache.WriteReq_hits::total         641754                       # number of WriteReq hits
system.cpu.dcache.WriteReq_misses::.switch_cpus.data       361837                       # number of WriteReq misses
system.cpu.dcache.WriteReq_misses::total       361837                       # number of WriteReq misses
system.cpu.dcache.WriteReq_miss_latency::.switch_cpus.data  29306548997                       # number of WriteReq miss cycles
system.cpu.dcache.WriteReq_miss_latency::total  29306548997                       # number of WriteReq miss cycles
system.cpu.dcache.WriteReq_accesses::.switch_cpus.data      1003591                       # number of WriteReq accesses(hits+misses)
system.cpu.dcache.WriteReq_accesses::total      1003591                       # number of WriteReq accesses(hits+misses)
system.cpu.dcache.WriteReq_miss_rate::.switch_cpus.data     0.360542                       # miss rate for WriteReq accesses
system.cpu.dcache.WriteReq_miss_rate::total     0.360542                       # miss rate for WriteReq accesses
system.cpu.dcache.WriteReq_avg_miss_latency::.switch_cpus.data 80993.787250                       # average WriteReq miss latency
system.cpu.dcache.WriteReq_avg_miss_latency::total 80993.787250                       # average WriteReq miss latency
system.cpu.dcache.WriteReq_mshr_hits::.switch_cpus.data            9                       # number of WriteReq MSHR hits
system.cpu.dcache.WriteReq_mshr_hits::total            9                       # number of WriteReq MSHR hits
system.cpu.dcache.WriteReq_mshr_misses::.switch_cpus.data       361828                       # number of WriteReq MSHR misses
system.cpu.dcache.WriteReq_mshr_misses::total       361828                       # number of WriteReq MSHR misses
system.cpu.dcache.WriteReq_mshr_miss_latency::.switch_cpus.data  28944168997                       # number of WriteReq MSHR miss cycles
system.cpu.dcache.WriteReq_mshr_miss_latency::total  28944168997                       # number of WriteReq MSHR miss cycles
system.cpu.dcache.WriteReq_mshr_miss_rate::.switch_cpus.data     0.360533                       # mshr miss rate for WriteReq accesses
system.cpu.dcache.WriteReq_mshr_miss_rate::total     0.360533                       # mshr miss rate for WriteReq accesses
system.cpu.dcache.WriteReq_avg_mshr_miss_latency::.switch_cpus.data 79994.276278                       # average WriteReq mshr miss latency
system.cpu.dcache.WriteReq_avg_mshr_miss_latency::total 79994.276278                       # average WriteReq mshr miss latency
system.cpu.dcache.SoftPFReq_hits::.switch_cpus.data        93978                       # number of SoftPFReq hits
system.cpu.dcache.SoftPFReq_hits::total         93978                       # number of SoftPFReq hits
system.cpu.dcache.SoftPFReq_misses::.switch_cpus.data         2408                       # number of SoftPFReq misses
system.cpu.dcache.SoftPFReq_misses::total         2408                       # number of SoftPFReq misses
system.cpu.dcache.SoftPFReq_accesses::.switch_cpus.data        96386                       # number of SoftPFReq accesses(hits+misses)
system.cpu.dcache.SoftPFReq_accesses::total        96386                       # number of SoftPFReq accesses(hits+misses)
system.cpu.dcache.SoftPFReq_miss_rate::.switch_cpus.data     0.024983                       # miss rate for SoftPFReq accesses
system.cpu.dcache.SoftPFReq_miss_rate::total     0.024983                       # miss rate for SoftPFReq accesses
system.cpu.dcache.SoftPFReq_mshr_misses::.switch_cpus.data          688                       # number of SoftPFReq MSHR misses
system.cpu.dcache.SoftPFReq_mshr_misses::total          688                       # number of SoftPFReq MSHR misses
system.cpu.dcache.SoftPFReq_mshr_miss_latency::.switch_cpus.data     42493500                       # number of SoftPFReq MSHR miss cycles
system.cpu.dcache.SoftPFReq_mshr_miss_latency::total     42493500                       # number of SoftPFReq MSHR miss cycles
system.cpu.dcache.SoftPFReq_mshr_miss_rate::.switch_cpus.data     0.007138                       # mshr miss rate for SoftPFReq accesses
system.cpu.dcache.SoftPFReq_mshr_miss_rate::total     0.007138                       # mshr miss rate for SoftPFReq accesses
system.cpu.dcache.SoftPFReq_avg_mshr_miss_latency::.switch_cpus.data 61763.808140                       # average SoftPFReq mshr miss latency
system.cpu.dcache.SoftPFReq_avg_mshr_miss_latency::total 61763.808140                       # average SoftPFReq mshr miss latency
system.cpu.dcache.power_state.pwrStateResidencyTicks::UNDEFINED  37388417000                       # Cumulative time (in ticks) in various power states
system.cpu.dcache.tags.tagsinuse          1023.140368                       # Cycle average of tags in use
system.cpu.dcache.tags.total_refs             5674732                       # Total number of references to valid blocks.
system.cpu.dcache.tags.sampled_refs            367838                       # Sample count of references to valid blocks.
system.cpu.dcache.tags.avg_refs             15.427259                       # Average number of references to valid blocks.
system.cpu.dcache.tags.warmup_cycle                 0                       # Cycle when the warmup percentage was hit.
system.cpu.dcache.tags.occ_blocks::.cpu.data   833.154909                       # Average occupied blocks per requestor
system.cpu.dcache.tags.occ_blocks::.switch_cpus.data   189.985459                       # Average occupied blocks per requestor
system.cpu.dcache.tags.occ_percent::.cpu.data     0.813628                       # Average percentage of cache occupancy
system.cpu.dcache.tags.occ_percent::.switch_cpus.data     0.185533                       # Average percentage of cache occupancy
system.cpu.dcache.tags.occ_percent::total     0.999161                       # Average percentage of cache occupancy
system.cpu.dcache.tags.occ_task_id_blocks::1024         1024                       # Occupied blocks per task id
system.cpu.dcache.tags.age_task_id_blocks_1024::0            2                       # Occupied blocks per task id
system.cpu.dcache.tags.age_task_id_blocks_1024::1           18                       # Occupied blocks per task id
system.cpu.dcache.tags.age_task_id_blocks_1024::2          851                       # Occupied blocks per task id
system.cpu.dcache.tags.age_task_id_blocks_1024::3          144                       # Occupied blocks per task id
system.cpu.dcache.tags.age_task_id_blocks_1024::4            9                       # Occupied blocks per task id
system.cpu.dcache.tags.occ_task_id_percent::1024            1                       # Percentage of cache occupancy per task id
system.cpu.dcache.tags.tag_accesses          11373209                       # Number of tag accesses
system.cpu.dcache.tags.data_accesses         11373209                       # Number of data accesses
system.cpu.dcache.tags.power_state.pwrStateResidencyTicks::UNDEFINED  37388417000                       # Cumulative time (in ticks) in various power states
system.cpu.dtb.rdAccesses                           0                       # TLB accesses on read requests
system.cpu.dtb.wrAccesses                           0                       # TLB accesses on write requests
system.cpu.dtb.rdMisses                             0                       # TLB misses on read requests
system.cpu.dtb.wrMisses                             0                       # TLB misses on write requests
system.cpu.dtb.walker.power_state.pwrStateResidencyTicks::UNDEFINED  37388417000                       # Cumulative time (in ticks) in various power states
system.cpu.dtb_walker_cache.blocked_cycles::no_mshrs            0                       # number of cycles access was blocked
system.cpu.dtb_walker_cache.blocked_cycles::no_targets            0                       # number of cycles access was blocked
system.cpu.dtb_walker_cache.blocked::no_mshrs            0                       # number of cycles access was blocked
system.cpu.dtb_walker_cache.blocked::no_targets            0                       # number of cycles access was blocked
system.cpu.dtb_walker_cache.avg_blocked_cycles::no_mshrs          nan                       # average number of cycles each access was blocked
system.cpu.dtb_walker_cache.avg_blocked_cycles::no_targets          nan                       # average number of cycles each access was blocked
system.cpu.dtb_walker_cache.replacements            0                       # number of replacements
system.cpu.dtb_walker_cache.power_state.pwrStateResidencyTicks::UNDEFINED  37388417000                       # Cumulative time (in ticks) in various power states
system.cpu.dtb_walker_cache.tags.tagsinuse            0                       # Cycle average of tags in use
system.cpu.dtb_walker_cache.tags.total_refs            0                       # Total number of references to valid blocks.
system.cpu.dtb_walker_cache.tags.sampled_refs            0                       # Sample count of references to valid blocks.
system.cpu.dtb_walker_cache.tags.avg_refs          nan                       # Average number of references to valid blocks.
system.cpu.dtb_walker_cache.tags.warmup_cycle            0                       # Cycle when the warmup percentage was hit.
system.cpu.dtb_walker_cache.tags.tag_accesses            0                       # Number of tag accesses
system.cpu.dtb_walker_cache.tags.data_accesses            0                       # Number of data accesses
system.cpu.dtb_walker_cache.tags.power_state.pwrStateResidencyTicks::UNDEFINED  37388417000                       # Cumulative time (in ticks) in various power states
system.cpu.icache.demand_hits::.switch_cpus.inst      3069907                       # number of demand (read+write) hits
system.cpu.icache.demand_hits::total          3069907                       # number of demand (read+write) hits
system.cpu.icache.overall_hits::.switch_cpus.inst      3069907                       # number of overall hits
system.cpu.icache.overall_hits::total         3069907                       # number of overall hits
system.cpu.icache.demand_misses::.switch_cpus.inst          748                       # number of demand (read+write) misses
system.cpu.icache.demand_misses::total            748                       # number of demand (read+write) misses
system.cpu.icache.overall_misses::.switch_cpus.inst          748                       # number of overall misses
system.cpu.icache.overall_misses::total           748                       # number of overall misses
system.cpu.icache.demand_miss_latency::.switch_cpus.inst     51753000                       # number of demand (read+write) miss cycles
system.cpu.icache.demand_miss_latency::total     51753000                       # number of demand (read+write) miss cycles
system.cpu.icache.overall_miss_latency::.switch_cpus.inst     51753000                       # number of overall miss cycles
system.cpu.icache.overall_miss_latency::total     51753000                       # number of overall miss cycles
system.cpu.icache.demand_accesses::.switch_cpus.inst      3070655                       # number of demand (read+write) accesses
system.cpu.icache.demand_accesses::total      3070655                       # number of demand (read+write) accesses
system.cpu.icache.overall_accesses::.switch_cpus.inst      3070655                       # number of overall (read+write) accesses
system.cpu.icache.overall_accesses::total      3070655                       # number of overall (read+write) accesses
system.cpu.icache.demand_miss_rate::.switch_cpus.inst     0.000244                       # miss rate for demand accesses
system.cpu.icache.demand_miss_rate::total     0.000244                       # miss rate for demand accesses
system.cpu.icache.overall_miss_rate::.switch_cpus.inst     0.000244                       # miss rate for overall accesses
system.cpu.icache.overall_miss_rate::total     0.000244                       # miss rate for overall accesses
system.cpu.icache.demand_avg_miss_latency::.switch_cpus.inst 69188.502674                       # average overall miss latency
system.cpu.icache.demand_avg_miss_latency::total 69188.502674                       # average overall miss latency
system.cpu.icache.overall_avg_miss_latency::.switch_cpus.inst 69188.502674                       # average overall miss latency
system.cpu.icache.overall_avg_miss_latency::total 69188.502674                       # average overall miss latency
system.cpu.icache.blocked_cycles::no_mshrs          179                       # number of cycles access was blocked
system.cpu.icache.blocked_cycles::no_targets            0                       # number of cycles access was blocked
system.cpu.icache.blocked::no_mshrs                 4                       # number of cycles access was blocked
system.cpu.icache.blocked::no_targets               0                       # number of cycles access was blocked
system.cpu.icache.avg_blocked_cycles::no_mshrs    44.750000                       # average number of cycles each access was blocked
system.cpu.icache.avg_blocked_cycles::no_targets          nan                       # average number of cycles each access was blocked
system.cpu.icache.writebacks::.writebacks          426                       # number of writebacks
system.cpu.icache.writebacks::total               426                       # number of writebacks
system.cpu.icache.demand_mshr_hits::.switch_cpus.inst          160                       # number of demand (read+write) MSHR hits
system.cpu.icache.demand_mshr_hits::total          160                       # number of demand (read+write) MSHR hits
system.cpu.icache.overall_mshr_hits::.switch_cpus.inst          160                       # number of overall MSHR hits
system.cpu.icache.overall_mshr_hits::total          160                       # number of overall MSHR hits
system.cpu.icache.demand_mshr_misses::.switch_cpus.inst          588                       # number of demand (read+write) MSHR misses
system.cpu.icache.demand_mshr_misses::total          588                       # number of demand (read+write) MSHR misses
system.cpu.icache.overall_mshr_misses::.switch_cpus.inst          588                       # number of overall MSHR misses
system.cpu.icache.overall_mshr_misses::total          588                       # number of overall MSHR misses
system.cpu.icache.demand_mshr_miss_latency::.switch_cpus.inst     40683500                       # number of demand (read+write) MSHR miss cycles
system.cpu.icache.demand_mshr_miss_latency::total     40683500                       # number of demand (read+write) MSHR miss cycles
system.cpu.icache.overall_mshr_miss_latency::.switch_cpus.inst     40683500                       # number of overall MSHR miss cycles
system.cpu.icache.overall_mshr_miss_latency::total     40683500                       # number of overall MSHR miss cycles
system.cpu.icache.demand_mshr_miss_rate::.switch_cpus.inst     0.000191                       # mshr miss rate for demand accesses
system.cpu.icache.demand_mshr_miss_rate::total     0.000191                       # mshr miss rate for demand accesses
system.cpu.icache.overall_mshr_miss_rate::.switch_cpus.inst     0.000191                       # mshr miss rate for overall accesses
system.cpu.icache.overall_mshr_miss_rate::total     0.000191                       # mshr miss rate for overall accesses
system.cpu.icache.demand_avg_mshr_miss_latency::.switch_cpus.inst 69189.625850                       # average overall mshr miss latency
system.cpu.icache.demand_avg_mshr_miss_latency::total 69189.625850                       # average overall mshr miss latency
system.cpu.icache.overall_avg_mshr_miss_latency::.switch_cpus.inst 69189.625850                       # average overall mshr miss latency
system.cpu.icache.overall_avg_mshr_miss_latency::total 69189.625850                       # average overall mshr miss latency
system.cpu.icache.replacements                    426                       # number of replacements
system.cpu.icache.ReadReq_hits::.switch_cpus.inst      3069907                       # number of ReadReq hits
system.cpu.icache.ReadReq_hits::total         3069907                       # number of ReadReq hits
system.cpu.icache.ReadReq_misses::.switch_cpus.inst          748                       # number of ReadReq misses
system.cpu.icache.ReadReq_misses::total           748                       # number of ReadReq misses
system.cpu.icache.ReadReq_miss_latency::.switch_cpus.inst     51753000                       # number of ReadReq miss cycles
system.cpu.icache.ReadReq_miss_latency::total     51753000                       # number of ReadReq miss cycles
system.cpu.icache.ReadReq_accesses::.switch_cpus.inst      3070655                       # number of ReadReq accesses(hits+misses)
system.cpu.icache.ReadReq_accesses::total      3070655                       # number of ReadReq accesses(hits+misses)
system.cpu.icache.ReadReq_miss_rate::.switch_cpus.inst     0.000244                       # miss rate for ReadReq accesses
system.cpu.icache.ReadReq_miss_rate::total     0.000244                       # miss rate for ReadReq accesses
system.cpu.icache.ReadReq_avg_miss_latency::.switch_cpus.inst 69188.502674                       # average ReadReq miss latency
system.cpu.icache.ReadReq_avg_miss_latency::total 69188.502674                       # average ReadReq miss latency
system.cpu.icache.ReadReq_mshr_hits::.switch_cpus.inst          160                       # number of ReadReq MSHR hits
system.cpu.icache.ReadReq_mshr_hits::total          160                       # number of ReadReq MSHR hits
system.cpu.icache.ReadReq_mshr_misses::.switch_cpus.inst          588                       # number of ReadReq MSHR misses
system.cpu.icache.ReadReq_mshr_misses::total          588                       # number of ReadReq MSHR misses
system.cpu.icache.ReadReq_mshr_miss_latency::.switch_cpus.inst     40683500                       # number of ReadReq MSHR miss cycles
system.cpu.icache.ReadReq_mshr_miss_latency::total     40683500                       # number of ReadReq MSHR miss cycles
system.cpu.icache.ReadReq_mshr_miss_rate::.switch_cpus.inst     0.000191                       # mshr miss rate for ReadReq accesses
system.cpu.icache.ReadReq_mshr_miss_rate::total     0.000191                       # mshr miss rate for ReadReq accesses
system.cpu.icache.ReadReq_avg_mshr_miss_latency::.switch_cpus.inst 69189.625850                       # average ReadReq mshr miss latency
system.cpu.icache.ReadReq_avg_mshr_miss_latency::total 69189.625850                       # average ReadReq mshr miss latency
system.cpu.icache.power_state.pwrStateResidencyTicks::UNDEFINED  37388417000                       # Cumulative time (in ticks) in various power states
system.cpu.icache.tags.tagsinuse           808.907387                       # Cycle average of tags in use
system.cpu.icache.tags.total_refs             4321762                       # Total number of references to valid blocks.
system.cpu.icache.tags.sampled_refs              1371                       # Sample count of references to valid blocks.
system.cpu.icache.tags.avg_refs           3152.269876                       # Average number of references to valid blocks.
system.cpu.icache.tags.warmup_cycle                 0                       # Cycle when the warmup percentage was hit.
system.cpu.icache.tags.occ_blocks::.cpu.inst   733.142642                       # Average occupied blocks per requestor
system.cpu.icache.tags.occ_blocks::.switch_cpus.inst    75.764745                       # Average occupied blocks per requestor
system.cpu.icache.tags.occ_percent::.cpu.inst     0.715960                       # Average percentage of cache occupancy
system.cpu.icache.tags.occ_percent::.switch_cpus.inst     0.073989                       # Average percentage of cache occupancy
system.cpu.icache.tags.occ_percent::total     0.789949                       # Average percentage of cache occupancy
system.cpu.icache.tags.occ_task_id_blocks::1024          945                       # Occupied blocks per task id
system.cpu.icache.tags.age_task_id_blocks_1024::2            3                       # Occupied blocks per task id
system.cpu.icache.tags.age_task_id_blocks_1024::3          469                       # Occupied blocks per task id
system.cpu.icache.tags.age_task_id_blocks_1024::4          473                       # Occupied blocks per task id
system.cpu.icache.tags.occ_task_id_percent::1024     0.922852                       # Percentage of cache occupancy per task id
system.cpu.icache.tags.tag_accesses           6141898                       # Number of tag accesses
system.cpu.icache.tags.data_accesses          6141898                       # Number of data accesses
system.cpu.icache.tags.power_state.pwrStateResidencyTicks::UNDEFINED  37388417000                       # Cumulative time (in ticks) in various power states
system.cpu.interrupts.clk_domain.clock           8000                       # Clock period in ticks
system.cpu.itb.rdAccesses                           0                       # TLB accesses on read requests
system.cpu.itb.wrAccesses                           0                       # TLB accesses on write requests
system.cpu.itb.rdMisses                             0                       # TLB misses on read requests
system.cpu.itb.wrMisses                             0                       # TLB misses on write requests
system.cpu.itb.walker.power_state.pwrStateResidencyTicks::UNDEFINED  37388417000                       # Cumulative time (in ticks) in various power states
system.cpu.itb_walker_cache.blocked_cycles::no_mshrs            0                       # number of cycles access was blocked
system.cpu.itb_walker_cache.blocked_cycles::no_targets            0                       # number of cycles access was blocked
system.cpu.itb_walker_cache.blocked::no_mshrs            0                       # number of cycles access was blocked
system.cpu.itb_walker_cache.blocked::no_targets            0                       # number of cycles access was blocked
system.cpu.itb_walker_cache.avg_blocked_cycles::no_mshrs          nan                       # average number of cycles each access was blocked
system.cpu.itb_walker_cache.avg_blocked_cycles::no_targets          nan                       # average number of cycles each access was blocked
system.cpu.itb_walker_cache.replacements            0                       # number of replacements
system.cpu.itb_walker_cache.power_state.pwrStateResidencyTicks::UNDEFINED  37388417000                       # Cumulative time (in ticks) in various power states
system.cpu.itb_walker_cache.tags.tagsinuse            0                       # Cycle average of tags in use
system.cpu.itb_walker_cache.tags.total_refs            0                       # Total number of references to valid blocks.
system.cpu.itb_walker_cache.tags.sampled_refs            0                       # Sample count of references to valid blocks.
system.cpu.itb_walker_cache.tags.avg_refs          nan                       # Average number of references to valid blocks.
system.cpu.itb_walker_cache.tags.warmup_cycle            0                       # Cycle when the warmup percentage was hit.
system.cpu.itb_walker_cache.tags.tag_accesses            0                       # Number of tag accesses
system.cpu.itb_walker_cache.tags.data_accesses            0                       # Number of data accesses
system.cpu.itb_walker_cache.tags.power_state.pwrStateResidencyTicks::UNDEFINED  37388417000                       # Cumulative time (in ticks) in various power states
system.cpu.power_state.pwrStateResidencyTicks::OFF  36355084000                       # Cumulative time (in ticks) in various power states
system.cpu.thread_0.numInsts                        0                       # Number of Instructions committed
system.cpu.thread_0.numOps                          0                       # Number of Ops committed
system.cpu.thread_0.numMemRefs                      0                       # Number of Memory References
system.cpu_clk_domain.clock                       500                       # Clock period in ticks
system.cpu_voltage_domain.voltage                   1                       # Voltage in Volts
system.l2.demand_hits::.switch_cpus.inst           88                       # number of demand (read+write) hits
system.l2.demand_hits::.switch_cpus.data         5063                       # number of demand (read+write) hits
system.l2.demand_hits::total                     5151                       # number of demand (read+write) hits
system.l2.overall_hits::.switch_cpus.inst           88                       # number of overall hits
system.l2.overall_hits::.switch_cpus.data         5063                       # number of overall hits
system.l2.overall_hits::total                    5151                       # number of overall hits
system.l2.demand_misses::.switch_cpus.inst          500                       # number of demand (read+write) misses
system.l2.demand_misses::.switch_cpus.data       361752                       # number of demand (read+write) misses
system.l2.demand_misses::total                 362252                       # number of demand (read+write) misses
system.l2.overall_misses::.switch_cpus.inst          500                       # number of overall misses
system.l2.overall_misses::.switch_cpus.data       361752                       # number of overall misses
system.l2.overall_misses::total                362252                       # number of overall misses
system.l2.demand_miss_latency::.switch_cpus.inst     38862000                       # number of demand (read+write) miss cycles
system.l2.demand_miss_latency::.switch_cpus.data  28314307000                       # number of demand (read+write) miss cycles
system.l2.demand_miss_latency::total      28353169000                       # number of demand (read+write) miss cycles
system.l2.overall_miss_latency::.switch_cpus.inst     38862000                       # number of overall miss cycles
system.l2.overall_miss_latency::.switch_cpus.data  28314307000                       # number of overall miss cycles
system.l2.overall_miss_latency::total     28353169000                       # number of overall miss cycles
system.l2.demand_accesses::.switch_cpus.inst          588                       # number of demand (read+write) accesses
system.l2.demand_accesses::.switch_cpus.data       366815                       # number of demand (read+write) accesses
system.l2.demand_accesses::total               367403                       # number of demand (read+write) accesses
system.l2.overall_accesses::.switch_cpus.inst          588                       # number of overall (read+write) accesses
system.l2.overall_accesses::.switch_cpus.data       366815                       # number of overall (read+write) accesses
system.l2.overall_accesses::total              367403                       # number of overall (read+write) accesses
system.l2.demand_miss_rate::.switch_cpus.inst     0.850340                       # miss rate for demand accesses
system.l2.demand_miss_rate::.switch_cpus.data     0.986197                       # miss rate for demand accesses
system.l2.demand_miss_rate::total            0.985980                       # miss rate for demand accesses
system.l2.overall_miss_rate::.switch_cpus.inst     0.850340                       # miss rate for overall accesses
system.l2.overall_miss_rate::.switch_cpus.data     0.986197                       # miss rate for overall accesses
system.l2.overall_miss_rate::total           0.985980                       # miss rate for overall accesses
system.l2.demand_avg_miss_latency::.switch_cpus.inst        77724                       # average overall miss latency
system.l2.demand_avg_miss_latency::.switch_cpus.data 78269.939074                       # average overall miss latency
system.l2.demand_avg_miss_latency::total 78269.185539                       # average overall miss latency
system.l2.overall_avg_miss_latency::.switch_cpus.inst        77724                       # average overall miss latency
system.l2.overall_avg_miss_latency::.switch_cpus.data 78269.939074                       # average overall miss latency
system.l2.overall_avg_miss_latency::total 78269.185539                       # average overall miss latency
system.l2.blocked_cycles::no_mshrs                  0                       # number of cycles access was blocked
system.l2.blocked_cycles::no_targets                0                       # number of cycles access was blocked
system.l2.blocked::no_mshrs                         0                       # number of cycles access was blocked
system.l2.blocked::no_targets                       0                       # number of cycles access was blocked
system.l2.avg_blocked_cycles::no_mshrs            nan                       # average number of cycles each access was blocked
system.l2.avg_blocked_cycles::no_targets          nan                       # average number of cycles each access was blocked
system.l2.writebacks::.writebacks              357511                       # number of writebacks
system.l2.writebacks::total                    357511                       # number of writebacks
system.l2.demand_mshr_misses::.switch_cpus.inst          500                       # number of demand (read+write) MSHR misses
system.l2.demand_mshr_misses::.switch_cpus.data       361752                       # number of demand (read+write) MSHR misses
system.l2.demand_mshr_misses::total            362252                       # number of demand (read+write) MSHR misses
system.l2.overall_mshr_misses::.switch_cpus.inst          500                       # number of overall MSHR misses
system.l2.overall_mshr_misses::.switch_cpus.data       361752                       # number of overall MSHR misses
system.l2.overall_mshr_misses::total           362252                       # number of overall MSHR misses
system.l2.demand_mshr_miss_latency::.switch_cpus.inst     33862000                       # number of demand (read+write) MSHR miss cycles
system.l2.demand_mshr_miss_latency::.switch_cpus.data  24696787000                       # number of demand (read+write) MSHR miss cycles
system.l2.demand_mshr_miss_latency::total  24730649000                       # number of demand (read+write) MSHR miss cycles
system.l2.overall_mshr_miss_latency::.switch_cpus.inst     33862000                       # number of overall MSHR miss cycles
system.l2.overall_mshr_miss_latency::.switch_cpus.data  24696787000                       # number of overall MSHR miss cycles
system.l2.overall_mshr_miss_latency::total  24730649000                       # number of overall MSHR miss cycles
system.l2.demand_mshr_miss_rate::.switch_cpus.inst     0.850340                       # mshr miss rate for demand accesses
system.l2.demand_mshr_miss_rate::.switch_cpus.data     0.986197                       # mshr miss rate for demand accesses
system.l2.demand_mshr_miss_rate::total       0.985980                       # mshr miss rate for demand accesses
system.l2.overall_mshr_miss_rate::.switch_cpus.inst     0.850340                       # mshr miss rate for overall accesses
system.l2.overall_mshr_miss_rate::.switch_cpus.data     0.986197                       # mshr miss rate for overall accesses
system.l2.overall_mshr_miss_rate::total      0.985980                       # mshr miss rate for overall accesses
system.l2.demand_avg_mshr_miss_latency::.switch_cpus.inst        67724                       # average overall mshr miss latency
system.l2.demand_avg_mshr_miss_latency::.switch_cpus.data 68269.939074                       # average overall mshr miss latency
system.l2.demand_avg_mshr_miss_latency::total 68269.185539                       # average overall mshr miss latency
system.l2.overall_avg_mshr_miss_latency::.switch_cpus.inst        67724                       # average overall mshr miss latency
system.l2.overall_avg_mshr_miss_latency::.switch_cpus.data 68269.939074                       # average overall mshr miss latency
system.l2.overall_avg_mshr_miss_latency::total 68269.185539                       # average overall mshr miss latency
system.l2.replacements                         358292                       # number of replacements
system.l2.WritebackDirty_hits::.writebacks       364370                       # number of WritebackDirty hits
system.l2.WritebackDirty_hits::total           364370                       # number of WritebackDirty hits
system.l2.WritebackDirty_accesses::.writebacks       364370                       # number of WritebackDirty accesses(hits+misses)
system.l2.WritebackDirty_accesses::total       364370                       # number of WritebackDirty accesses(hits+misses)
system.l2.WritebackClean_hits::.writebacks          425                       # number of WritebackClean hits
system.l2.WritebackClean_hits::total              425                       # number of WritebackClean hits
system.l2.WritebackClean_accesses::.writebacks          425                       # number of WritebackClean accesses(hits+misses)
system.l2.WritebackClean_accesses::total          425                       # number of WritebackClean accesses(hits+misses)
system.l2.ReadExReq_hits::.switch_cpus.data          769                       # number of ReadExReq hits
system.l2.ReadExReq_hits::total                   769                       # number of ReadExReq hits
system.l2.ReadExReq_misses::.switch_cpus.data       361059                       # number of ReadExReq misses
system.l2.ReadExReq_misses::total              361059                       # number of ReadExReq misses
system.l2.ReadExReq_miss_latency::.switch_cpus.data  28259457500                       # number of ReadExReq miss cycles
system.l2.ReadExReq_miss_latency::total   28259457500                       # number of ReadExReq miss cycles
system.l2.ReadExReq_accesses::.switch_cpus.data       361828                       # number of ReadExReq accesses(hits+misses)
system.l2.ReadExReq_accesses::total            361828                       # number of ReadExReq accesses(hits+misses)
system.l2.ReadExReq_miss_rate::.switch_cpus.data     0.997875                       # miss rate for ReadExReq accesses
system.l2.ReadExReq_miss_rate::total         0.997875                       # miss rate for ReadExReq accesses
[...]
system.switch_cpus.commit.committedInstType_0::FloatSqrt            0      0.00%     83.38% # Class of committed instruction
system.switch_cpus.commit.committedInstType_0::SimdAdd            0      0.00%     83.38% # Class of committed instruction
system.switch_cpus.commit.committedInstType_0::SimdAddAcc            0      0.00%     83.38% # Class of committed instruction
system.switch_cpus.commit.committedInstType_0::SimdAlu           38      0.00%     83.38% # Class of committed instruction
system.switch_cpus.commit.committedInstType_0::SimdCmp            0      0.00%     83.38% # Class of committed instruction
system.switch_cpus.commit.committedInstType_0::SimdCvt           16      0.00%     83.38% # Class of committed instruction
system.switch_cpus.commit.committedInstType_0::SimdMisc          195      0.00%     83.39% # Class of committed instruction
system.switch_cpus.commit.committedInstType_0::SimdMult            0      0.00%     83.39% # Class of committed instruction
system.switch_cpus.commit.committedInstType_0::SimdMultAcc            0      0.00%     83.39% # Class of committed instruction
system.switch_cpus.commit.committedInstType_0::SimdShift            0      0.00%     83.39% # Class of committed instruction
system.switch_cpus.commit.committedInstType_0::SimdShiftAcc            0      0.00%     83.39% # Class of committed instruction
system.switch_cpus.commit.committedInstType_0::SimdDiv            0      0.00%     83.39% # Class of committed instruction
system.switch_cpus.commit.committedInstType_0::SimdSqrt            0      0.00%     83.39% # Class of committed instruction
system.switch_cpus.commit.committedInstType_0::SimdFloatAdd            0      0.00%     83.39% # Class of committed instruction
system.switch_cpus.commit.committedInstType_0::SimdFloatAlu            0      0.00%     83.39% # Class of committed instruction
system.switch_cpus.commit.committedInstType_0::SimdFloatCmp            0      0.00%     83.39% # Class of committed instruction
system.switch_cpus.commit.committedInstType_0::SimdFloatCvt            0      0.00%     83.39% # Class of committed instruction
system.switch_cpus.commit.committedInstType_0::SimdFloatDiv            0      0.00%     83.39% # Class of committed instruction
system.switch_cpus.commit.committedInstType_0::SimdFloatMisc            0      0.00%     83.39% # Class of committed instruction
system.switch_cpus.commit.committedInstType_0::SimdFloatMult            0      0.00%     83.39% # Class of committed instruction
system.switch_cpus.commit.committedInstType_0::SimdFloatMultAcc            0      0.00%     83.39% # Class of committed instruction
system.switch_cpus.commit.committedInstType_0::SimdFloatSqrt            0      0.00%     83.39% # Class of committed instruction
system.switch_cpus.commit.committedInstType_0::SimdReduceAdd            0      0.00%     83.39% # Class of committed instruction
system.switch_cpus.commit.committedInstType_0::SimdReduceAlu            0      0.00%     83.39% # Class of committed instruction
system.switch_cpus.commit.committedInstType_0::SimdReduceCmp            0      0.00%     83.39% # Class of committed instruction
system.switch_cpus.commit.committedInstType_0::SimdFloatReduceAdd            0      0.00%     83.39% # Class of committed instruction
system.switch_cpus.commit.committedInstType_0::SimdFloatReduceCmp            0      0.00%     83.39% # Class of committed instruction
system.switch_cpus.commit.committedInstType_0::SimdAes            0      0.00%     83.39% # Class of committed instruction
system.switch_cpus.commit.committedInstType_0::SimdAesMix            0      0.00%     83.39% # Class of committed instruction
system.switch_cpus.commit.committedInstType_0::SimdSha1Hash            0      0.00%     83.39% # Class of committed instruction
system.switch_cpus.commit.committedInstType_0::SimdSha1Hash2            0      0.00%     83.39% # Class of committed instruction
system.switch_cpus.commit.committedInstType_0::SimdSha256Hash            0      0.00%     83.39% # Class of committed instruction
system.switch_cpus.commit.committedInstType_0::SimdSha256Hash2            0      0.00%     83.39% # Class of committed instruction
system.switch_cpus.commit.committedInstType_0::SimdShaSigma2            0      0.00%     83.39% # Class of committed instruction
system.switch_cpus.commit.committedInstType_0::SimdShaSigma3            0      0.00%     83.39% # Class of committed instruction
system.switch_cpus.commit.committedInstType_0::SimdPredAlu            0      0.00%     83.39% # Class of committed instruction
system.switch_cpus.commit.committedInstType_0::MemRead      1552130      9.94%     93.32% # Class of committed instruction
system.switch_cpus.commit.committedInstType_0::MemWrite       959935      6.14%     99.47% # Class of committed instruction
system.switch_cpus.commit.committedInstType_0::FloatMemRead        41594      0.27%     99.73% # Class of committed instruction
system.switch_cpus.commit.committedInstType_0::FloatMemWrite        41766      0.27%    100.00% # Class of committed instruction
system.switch_cpus.commit.committedInstType_0::IprAccess            0      0.00%    100.00% # Class of committed instruction
system.switch_cpus.commit.committedInstType_0::InstPrefetch            0      0.00%    100.00% # Class of committed instruction
system.switch_cpus.commit.committedInstType_0::total     15621644                       # Class of committed instruction
system.switch_cpus.commit.commitEligibleSamples       803905                       # number cycles where commit BW limit reached
system.switch_cpus.decode.idleCycles          2708669                       # Number of cycles decode is idle
system.switch_cpus.decode.blockedCycles      60893482                       # Number of cycles decode is blocked
system.switch_cpus.decode.runCycles           7863445                       # Number of cycles decode is running
system.switch_cpus.decode.unblockCycles        791440                       # Number of cycles decode is unblocking
system.switch_cpus.decode.squashCycles         415689                       # Number of cycles decode is squashing
system.switch_cpus.decode.branchResolved      3957861                       # Number of times decode resolved a  branch
system.switch_cpus.decode.branchMispred           974                       # Number of times decode detected a branch misprediction
system.switch_cpus.decode.decodedInsts       51464554                       # Number of instructions handled by decode
system.switch_cpus.decode.squashedInsts          4703                       # Number of squashed instructions handled by decode
system.switch_cpus.dtb.rdAccesses             4747850                       # TLB accesses on read requests
system.switch_cpus.dtb.wrAccesses             3756049                       # TLB accesses on write requests
system.switch_cpus.dtb.rdMisses                   306                       # TLB misses on read requests
system.switch_cpus.dtb.wrMisses               2052620                       # TLB misses on write requests
system.switch_cpus.dtb.walker.power_state.pwrStateResidencyTicks::UNDEFINED  37388417000                       # Cumulative time (in ticks) in various power states
system.switch_cpus.fetch.icacheStallCycles      3311478                       # Number of cycles fetch is stalled on an Icache miss
system.switch_cpus.fetch.insts               34897885                       # Number of instructions fetch has processed
system.switch_cpus.fetch.branches             5301620                       # Number of branches that fetch encountered
system.switch_cpus.fetch.predictedBranches      4439919                       # Number of branches that fetch has predicted taken
system.switch_cpus.fetch.cycles              68943707                       # Number of cycles fetch has run and was not squashing or blocked
system.switch_cpus.fetch.squashCycles          833294                       # Number of cycles fetch has spent squashing
system.switch_cpus.fetch.miscStallCycles          103                       # Number of cycles fetch has spent waiting on interrupts,or bad addresses, or out of MSHRs
system.switch_cpus.fetch.pendingTrapStallCycles          765                       # Number of stall cycles due to pending traps
system.switch_cpus.fetch.icacheWaitRetryStallCycles           30                       # Number of stall cycles due to full MSHR
system.switch_cpus.fetch.cacheLines           3070655                       # Number of cache lines fetched
system.switch_cpus.fetch.icacheSquashes         91706                       # Number of outstanding Icache misses that were squashed
system.switch_cpus.fetch.nisnDist::samples     72672730                       # Number of instructions fetched each cycle (Total)
system.switch_cpus.fetch.nisnDist::mean      0.787911                       # Number of instructions fetched each cycle (Total)
system.switch_cpus.fetch.nisnDist::stdev     2.214416                       # Number of instructions fetched each cycle (Total)
system.switch_cpus.fetch.nisnDist::underflows            0      0.00%      0.00% # Number of instructions fetched each cycle (Total)
system.switch_cpus.fetch.nisnDist::0         61771332     85.00%     85.00% # Number of instructions fetched each cycle (Total)
system.switch_cpus.fetch.nisnDist::1          2843871      3.91%     88.91% # Number of instructions fetched each cycle (Total)
system.switch_cpus.fetch.nisnDist::2           340697      0.47%     89.38% # Number of instructions fetched each cycle (Total)
system.switch_cpus.fetch.nisnDist::3           660162      0.91%     90.29% # Number of instructions fetched each cycle (Total)
system.switch_cpus.fetch.nisnDist::4           494409      0.68%     90.97% # Number of instructions fetched each cycle (Total)
system.switch_cpus.fetch.nisnDist::5           620925      0.85%     91.82% # Number of instructions fetched each cycle (Total)
system.switch_cpus.fetch.nisnDist::6           267264      0.37%     92.19% # Number of instructions fetched each cycle (Total)
system.switch_cpus.fetch.nisnDist::7           324503      0.45%     92.64% # Number of instructions fetched each cycle (Total)
system.switch_cpus.fetch.nisnDist::8          5349567      7.36%    100.00% # Number of instructions fetched each cycle (Total)
system.switch_cpus.fetch.nisnDist::overflows            0      0.00%    100.00% # Number of instructions fetched each cycle (Total)
system.switch_cpus.fetch.nisnDist::min_value            0                       # Number of instructions fetched each cycle (Total)
system.switch_cpus.fetch.nisnDist::max_value            8                       # Number of instructions fetched each cycle (Total)
system.switch_cpus.fetch.nisnDist::total     72672730                       # Number of instructions fetched each cycle (Total)
system.switch_cpus.fetch.branchRate          0.072914                       # Number of branch fetches per cycle
system.switch_cpus.fetch.rate                0.479959                       # Number of inst fetches per cycle
system.switch_cpus.itb.rdAccesses                   0                       # TLB accesses on read requests
system.switch_cpus.itb.wrAccesses             3070780                       # TLB accesses on write requests
system.switch_cpus.itb.rdMisses                     0                       # TLB misses on read requests
system.switch_cpus.itb.wrMisses                   165                       # TLB misses on write requests
system.switch_cpus.itb.walker.power_state.pwrStateResidencyTicks::UNDEFINED  37388417000                       # Cumulative time (in ticks) in various power states
system.switch_cpus.lsq0.forwLoads              247959                       # Number of loads that had data forwarded from stores
system.switch_cpus.lsq0.squashedLoads         3627234                       # Number of loads squashed
system.switch_cpus.lsq0.ignoredResponses         5389                       # Number of memory responses ignored because the instruction is squashed
system.switch_cpus.lsq0.memOrderViolation         1569                       # Number of memory ordering violations
system.switch_cpus.lsq0.squashedStores        3300531                       # Number of stores squashed
system.switch_cpus.lsq0.rescheduledLoads            1                       # Number of loads that were rescheduled
system.switch_cpus.lsq0.blockedByCache             29                       # Number of times an access to memory failed due to the cache being blocked
system.switch_cpus.power_state.pwrStateResidencyTicks::OFF  37388417000                       # Cumulative time (in ticks) in various power states
system.switch_cpus.rename.squashCycles         415689                       # Number of cycles rename is squashing
system.switch_cpus.rename.idleCycles          3168595                       # Number of cycles rename is idle
system.switch_cpus.rename.blockCycles        59703026                       # Number of cycles rename is blocking
system.switch_cpus.rename.serializeStallCycles            0                       # count of cycles rename stalledfor serializing inst
system.switch_cpus.rename.runCycles           8179752                       # Number of cycles rename is running
system.switch_cpus.rename.unblockCycles       1205663                       # Number of cycles rename is unblocking
system.switch_cpus.rename.renamedInsts       49745250                       # Number of instructions processed by rename
system.switch_cpus.rename.ROBFullEvents        268963                       # Number of times rename has blocked due to ROB full
system.switch_cpus.rename.IQFullEvents         375779                       # Number of times rename has blocked due to IQ full
system.switch_cpus.rename.LQFullEvents            948                       # Number of times rename has blocked due to LQ full
system.switch_cpus.rename.SQFullEvents         541535                       # Number of times rename has blocked due to SQ full
system.switch_cpus.rename.renamedOperands     65983057                       # Number of destination operands rename has renamed
system.switch_cpus.rename.lookups           120095715                       # Number of register rename lookups that rename has made
system.switch_cpus.rename.intLookups         76410117                       # Number of integer rename lookups
system.switch_cpus.rename.fpLookups            690464                       # Number of floating rename lookups
system.switch_cpus.rename.committedMaps      21895928                       # Number of HB maps that are committed
system.switch_cpus.rename.undoneMaps         44087066                       # Number of HB maps that are undone due to squashing
system.switch_cpus.rename.serializing               0                       # count of serializing insts renamed
system.switch_cpus.rename.tempSerializing            0                       # count of temporary serializing insts renamed
system.switch_cpus.rename.skidInsts           1861491                       # count of insts added to the skid buffer
system.switch_cpus.rob.reads                113433331                       # The number of ROB reads
system.switch_cpus.rob.writes                98266929                       # The number of ROB writes
system.switch_cpus.thread_0.numInsts         10000001                       # Number of Instructions committed
system.switch_cpus.thread_0.numOps           15621644                       # Number of Ops committed
system.switch_cpus.thread_0.numMemRefs              0                       # Number of Memory References
system.tol2bus.trans_dist::ReadResp              5575                       # Transaction distribution
system.tol2bus.trans_dist::WritebackDirty       721881                       # Transaction distribution
system.tol2bus.trans_dist::WritebackClean          426                       # Transaction distribution
system.tol2bus.trans_dist::CleanEvict            3225                       # Transaction distribution
system.tol2bus.trans_dist::ReadExReq           361828                       # Transaction distribution
system.tol2bus.trans_dist::ReadExResp          361828                       # Transaction distribution
system.tol2bus.trans_dist::ReadCleanReq           588                       # Transaction distribution
system.tol2bus.trans_dist::ReadSharedReq         4987                       # Transaction distribution
system.tol2bus.pkt_count_system.cpu.icache.mem_side_port::system.l2.cpu_side_port         1602                       # Packet count per connected requestor and responder (bytes)
system.tol2bus.pkt_count_system.cpu.dcache.mem_side_port::system.l2.cpu_side_port      1100444                       # Packet count per connected requestor and responder (bytes)
system.tol2bus.pkt_count::total               1102046                       # Packet count per connected requestor and responder (bytes)
system.tol2bus.pkt_size_system.cpu.icache.mem_side_port::system.l2.cpu_side_port        64896                       # Cumulative packet size per connected requestor and responder (bytes)
system.tol2bus.pkt_size_system.cpu.dcache.mem_side_port::system.l2.cpu_side_port     46795840                       # Cumulative packet size per connected requestor and responder (bytes)
system.tol2bus.pkt_size::total               46860736                       # Cumulative packet size per connected requestor and responder (bytes)
system.tol2bus.snoops                          358292                       # Total snoops (count)
system.tol2bus.snoopTraffic                  22880704                       # Total snoop traffic (bytes)
system.tol2bus.snoop_fanout::samples           725695                       # Request fanout histogram
system.tol2bus.snoop_fanout::mean            0.000229                       # Request fanout histogram
system.tol2bus.snoop_fanout::stdev           0.015123                       # Request fanout histogram
system.tol2bus.snoop_fanout::underflows             0      0.00%      0.00% # Request fanout histogram
system.tol2bus.snoop_fanout::0                 725529     99.98%     99.98% # Request fanout histogram
system.tol2bus.snoop_fanout::1                    166      0.02%    100.00% # Request fanout histogram
system.tol2bus.snoop_fanout::2                      0      0.00%    100.00% # Request fanout histogram
system.tol2bus.snoop_fanout::3                      0      0.00%    100.00% # Request fanout histogram
system.tol2bus.snoop_fanout::4                      0      0.00%    100.00% # Request fanout histogram
system.tol2bus.snoop_fanout::overflows              0      0.00%    100.00% # Request fanout histogram
system.tol2bus.snoop_fanout::min_value              0                       # Request fanout histogram
system.tol2bus.snoop_fanout::max_value              1                       # Request fanout histogram
system.tol2bus.snoop_fanout::total             725695                       # Request fanout histogram
system.tol2bus.power_state.pwrStateResidencyTicks::UNDEFINED  37388417000                       # Cumulative time (in ticks) in various power states
system.tol2bus.reqLayer0.occupancy          732117500                       # Layer occupancy (ticks)
system.tol2bus.reqLayer0.utilization              2.0                       # Layer utilization (%)
system.tol2bus.respLayer0.occupancy            882499                       # Layer occupancy (ticks)
system.tol2bus.respLayer0.utilization             0.0                       # Layer utilization (%)
system.tol2bus.respLayer1.occupancy         550222500                       # Layer occupancy (ticks)
system.tol2bus.respLayer1.utilization             1.5                       # Layer utilization (%)
system.voltage_domain.voltage                       1                       # Voltage in Volts

---------- End Simulation Statistics   ----------
