
---------- Begin Simulation Statistics ----------
final_tick                                 8153049000                       # Number of ticks from beginning of simulation (restored from checkpoints and never reset)
host_inst_rate                                 112367                       # Simulator instruction rate (inst/s)
host_mem_usage                                8824096                       # Number of bytes of host memory used
host_op_rate                                   210206                       # Simulator op (including micro ops) rate (op/s)
host_seconds                                    97.89                       # Real time elapsed on the host
host_tick_rate                               72555142                       # Simulator tick rate (ticks/s)
sim_freq                                 1000000000000                       # Frequency of simulated ticks
sim_insts                                    11000001                       # Number of instructions simulated
sim_ops                                      20577856                       # Number of ops (including micro ops) simulated
sim_seconds                                  0.007103                       # Number of seconds simulated
sim_ticks                                  7102686000                       # Number of ticks simulated
system.cpu.committedInsts                           0                       # Number of instructions committed
system.cpu.committedOps                             0                       # Number of ops (including micro ops) committed
system.cpu.idle_fraction                            0                       # Percentage of idle cycles
system.cpu.not_idle_fraction                        1                       # Percentage of non-idle cycles
system.cpu.numCycles                                0                       # number of cpu cycles simulated
system.cpu.numWorkItemsCompleted                    0                       # number of work items this cpu completed
system.cpu.numWorkItemsStarted                      0                       # number of work items this cpu started
system.cpu.num_busy_cycles                          0                       # Number of busy cycles
system.cpu.num_conditional_control_insts            0                       # number of instructions that are conditional controls
system.cpu.num_fp_alu_accesses                      0                       # Number of float alu accesses
system.cpu.num_fp_insts                             0                       # number of float instructions
system.cpu.num_fp_register_reads                    0                       # number of times the floating registers were read
system.cpu.num_fp_register_writes                   0                       # number of times the floating registers were written
system.cpu.num_func_calls                           0                       # number of times a function call or return occured
system.cpu.num_idle_cycles                          0                       # Number of idle cycles
system.cpu.num_int_alu_accesses                     0                       # Number of integer alu accesses
system.cpu.num_int_insts                            0                       # number of integer instructions
system.cpu.num_int_register_reads                   0                       # number of times the integer registers were read
system.cpu.num_int_register_writes                  0                       # number of times the integer registers were written
system.cpu.num_load_insts                           0                       # Number of load instructions
system.cpu.num_mem_refs                             0                       # number of memory refs
system.cpu.num_store_insts                          0                       # Number of store instructions
system.cpu.num_vec_alu_accesses                     0                       # Number of vector alu accesses
system.cpu.num_vec_insts                            0                       # number of vector instructions
system.cpu.num_vec_register_reads                   0                       # number of times the vector registers were read
system.cpu.num_vec_register_writes                  0                       # number of times the vector registers were written
system.cpu.op_class::No_OpClass                     0                       # Class of executed instruction
system.cpu.op_class::IntAlu                         0                       # Class of executed instruction
system.cpu.op_class::IntMult                        0                       # Class of executed instruction
system.cpu.op_class::IntDiv                         0                       # Class of executed instruction
system.cpu.op_class::FloatAdd                       0                       # Class of executed instruction
system.cpu.op_class::FloatCmp                       0                       # Class of executed instruction
system.cpu.op_class::FloatCvt                       0                       # Class of executed instruction
system.cpu.op_class::FloatMult                      0                       # Class of executed instruction
system.cpu.op_class::FloatMultAcc                   0                       # Class of executed instruction
system.cpu.op_class::FloatDiv                       0                       # Class of executed instruction
system.cpu.op_class::FloatMisc                      0                       # Class of executed instruction
system.cpu.op_class::FloatSqrt                      0                       # Class of executed instruction
system.cpu.op_class::SimdAdd                        0                       # Class of executed instruction
system.cpu.op_class::SimdAddAcc                     0                       # Class of executed instruction
system.cpu.op_class::SimdAlu                        0                       # Class of executed instruction
system.cpu.op_class::SimdCmp                        0                       # Class of executed instruction
system.cpu.op_class::SimdCvt                        0                       # Class of executed instruction
system.cpu.op_class::SimdMisc                       0                       # Class of executed instruction
system.cpu.op_class::SimdMult                       0                       # Class of executed instruction
system.cpu.op_class::SimdMultAcc                    0                       # Class of executed instruction
system.cpu.op_class::SimdShift                      0                       # Class of executed instruction
system.cpu.op_class::SimdShiftAcc                   0                       # Class of executed instruction
system.cpu.op_class::SimdDiv                        0                       # Class of executed instruction
system.cpu.op_class::SimdSqrt                       0                       # Class of executed instruction
system.cpu.op_class::SimdFloatAdd                   0                       # Class of executed instruction
system.cpu.op_class::SimdFloatAlu                   0                       # Class of executed instruction
system.cpu.op_class::SimdFloatCmp                   0                       # Class of executed instruction
system.cpu.op_class::SimdFloatCvt                   0                       # Class of executed instruction
system.cpu.op_class::SimdFloatDiv                   0                       # Class of executed instruction
system.cpu.op_class::SimdFloatMisc                  0                       # Class of executed instruction
system.cpu.op_class::SimdFloatMult                  0                       # Class of executed instruction
system.cpu.op_class::SimdFloatMultAcc               0                       # Class of executed instruction
system.cpu.op_class::SimdFloatSqrt                  0                       # Class of executed instruction
system.cpu.op_class::SimdReduceAdd                  0                       # Class of executed instruction
system.cpu.op_class::SimdReduceAlu                  0                       # Class of executed instruction
system.cpu.op_class::SimdReduceCmp                  0                       # Class of executed instruction
system.cpu.op_class::SimdFloatReduceAdd             0                       # Class of executed instruction
system.cpu.op_class::SimdFloatReduceCmp             0                       # Class of executed instruction
system.cpu.op_class::SimdAes                        0                       # Class of executed instruction
system.cpu.op_class::SimdAesMix                     0                       # Class of executed instruction
system.cpu.op_class::SimdSha1Hash                   0                       # Class of executed instruction
system.cpu.op_class::SimdSha1Hash2                  0                       # Class of executed instruction
system.cpu.op_class::SimdSha256Hash                 0                       # Class of executed instruction
system.cpu.op_class::SimdSha256Hash2                0                       # Class of executed instruction
system.cpu.op_class::SimdShaSigma2                  0                       # Class of executed instruction
system.cpu.op_class::SimdShaSigma3                  0                       # Class of executed instruction
system.cpu.op_class::SimdPredAlu                    0                       # Class of executed instruction
system.cpu.op_class::MemRead                        0                       # Class of executed instruction
system.cpu.op_class::MemWrite                       0                       # Class of executed instruction
system.cpu.op_class::FloatMemRead                   0                       # Class of executed instruction
system.cpu.op_class::FloatMemWrite                  0                       # Class of executed instruction
system.cpu.op_class::IprAccess                      0                       # Class of executed instruction
system.cpu.op_class::InstPrefetch                   0                       # Class of executed instruction
system.cpu.op_class::total                          0                       # Class of executed instruction
system.cpu.workload.numSyscalls                    26                       # Number of system calls
system.membus.snoop_filter.hit_multi_requests            0                       # Number of requests hitting in the snoop filter with multiple (>1) holders of the requested data.
system.membus.snoop_filter.hit_multi_snoops            0                       # Number of snoops hitting in the snoop filter with multiple (>1) holders of the requested data.
system.membus.snoop_filter.hit_single_requests        33763                       # Number of requests hitting in the snoop filter with a single holder of the requested data.
system.membus.snoop_filter.hit_single_snoops            0                       # Number of snoops hitting in the snoop filter with a single holder of the requested data.
system.membus.snoop_filter.tot_requests         69423                       # Total number of requests made to the snoop filter.
system.membus.snoop_filter.tot_snoops               0                       # Total number of snoops made to the snoop filter.
system.switch_cpus.cc_regfile_reads          13194791                       # number of cc regfile reads
system.switch_cpus.cc_regfile_writes          8366753                       # number of cc regfile writes
system.switch_cpus.committedInsts            10000000                       # Number of Instructions Simulated
system.switch_cpus.committedOps              18817440                       # Number of Ops (including micro ops) Simulated
system.switch_cpus.cpi                       1.420537                       # CPI: Cycles Per Instruction
system.switch_cpus.cpi_total                 1.420537                       # CPI: Total CPI of All Threads
system.switch_cpus.fp_regfile_reads            246774                       # number of floating regfile reads
system.switch_cpus.fp_regfile_writes           133245                       # number of floating regfile writes
system.switch_cpus.idleCycles                  510365                       # Total number of cycles that the CPU has spent unscheduled due to idling
system.switch_cpus.iew.branchMispredicts       478877                       # Number of branch mispredicts detected at execute
system.switch_cpus.iew.exec_branches          2759002                       # Number of branches executed
system.switch_cpus.iew.exec_nop                     0                       # number of nop insts executed
system.switch_cpus.iew.exec_rate             1.909989                       # Inst execution rate
system.switch_cpus.iew.exec_refs              5542151                       # number of memory reference insts executed
system.switch_cpus.iew.exec_stores            1617481                       # Number of stores executed
system.switch_cpus.iew.exec_swp                     0                       # number of swp insts executed
system.switch_cpus.iew.iewBlockCycles         2078664                       # Number of cycles IEW is blocking
system.switch_cpus.iew.iewDispLoadInsts       4652542                       # Number of dispatched load instructions
system.switch_cpus.iew.iewDispNonSpecInsts         2550                       # Number of dispatched non-speculative instructions
system.switch_cpus.iew.iewDispSquashedInsts        33733                       # Number of squashed instructions skipped by dispatch
system.switch_cpus.iew.iewDispStoreInsts      1938005                       # Number of dispatched store instructions
system.switch_cpus.iew.iewDispatchedInsts     32209166                       # Number of instructions dispatched to IQ
system.switch_cpus.iew.iewExecLoadInsts       3924670                       # Number of load instructions executed
system.switch_cpus.iew.iewExecSquashedInsts       837735                       # Number of squashed instructions skipped in execute
system.switch_cpus.iew.iewExecutedInsts      27132111                       # Number of executed instructions
system.switch_cpus.iew.iewIQFullEvents          10061                       # Number of times the IQ has become full, causing a stall
system.switch_cpus.iew.iewIdleCycles                0                       # Number of cycles IEW is idle
system.switch_cpus.iew.iewLSQFullEvents        258546                       # Number of times the LSQ has become full, causing a stall
system.switch_cpus.iew.iewSquashCycles         379054                       # Number of cycles IEW is squashing
system.switch_cpus.iew.iewUnblockCycles        272386                       # Number of cycles IEW is unblocking
system.switch_cpus.iew.memOrderViolationEvents          636                       # Number of memory order violations
system.switch_cpus.iew.predictedNotTakenIncorrect       307291                       # Number of branches that were predicted not taken incorrectly
system.switch_cpus.iew.predictedTakenIncorrect       171586                       # Number of branches that were predicted taken incorrectly
system.switch_cpus.iew.wb_consumers          31554674                       # num instructions consuming a value
system.switch_cpus.iew.wb_count              26667754                       # cumulative count of insts written-back
system.switch_cpus.iew.wb_fanout             0.608952                       # average fanout of values written-back
system.switch_cpus.iew.wb_producers          19215277                       # num instructions producing a value
system.switch_cpus.iew.wb_rate               1.877301                       # insts written-back per cycle
system.switch_cpus.iew.wb_sent               26863045                       # cumulative count of insts sent to commit
system.switch_cpus.int_regfile_reads         40079193                       # number of integer regfile reads
system.switch_cpus.int_regfile_writes        22280400                       # number of integer regfile writes
system.switch_cpus.ipc                       0.703959                       # IPC: Instructions Per Cycle
system.switch_cpus.ipc_total                 0.703959                       # IPC: Total IPC of All Threads
system.switch_cpus.iq.FU_type_0::No_OpClass       528127      1.89%      1.89% # Type of FU issued
system.switch_cpus.iq.FU_type_0::IntAlu      21270385     76.05%     77.94% # Type of FU issued
system.switch_cpus.iq.FU_type_0::IntMult        70005      0.25%     78.19% # Type of FU issued
system.switch_cpus.iq.FU_type_0::IntDiv        169800      0.61%     78.79% # Type of FU issued
system.switch_cpus.iq.FU_type_0::FloatAdd        13646      0.05%     78.84% # Type of FU issued
system.switch_cpus.iq.FU_type_0::FloatCmp            0      0.00%     78.84% # Type of FU issued
system.switch_cpus.iq.FU_type_0::FloatCvt         1174      0.00%     78.85% # Type of FU issued
system.switch_cpus.iq.FU_type_0::FloatMult            2      0.00%     78.85% # Type of FU issued
system.switch_cpus.iq.FU_type_0::FloatMultAcc            0      0.00%     78.85% # Type of FU issued
system.switch_cpus.iq.FU_type_0::FloatDiv            0      0.00%     78.85% # Type of FU issued
system.switch_cpus.iq.FU_type_0::FloatMisc            0      0.00%     78.85% # Type of FU issued
system.switch_cpus.iq.FU_type_0::FloatSqrt            0      0.00%     78.85% # Type of FU issued
system.switch_cpus.iq.FU_type_0::SimdAdd         5347      0.02%     78.87% # Type of FU issued
system.switch_cpus.iq.FU_type_0::SimdAddAcc            0      0.00%     78.87% # Type of FU issued
system.switch_cpus.iq.FU_type_0::SimdAlu        37613      0.13%     79.00% # Type of FU issued
system.switch_cpus.iq.FU_type_0::SimdCmp           66      0.00%     79.00% # Type of FU issued
system.switch_cpus.iq.FU_type_0::SimdCvt        14517      0.05%     79.05% # Type of FU issued
system.switch_cpus.iq.FU_type_0::SimdMisc        20691      0.07%     79.13% # Type of FU issued
system.switch_cpus.iq.FU_type_0::SimdMult            0      0.00%     79.13% # Type of FU issued
system.switch_cpus.iq.FU_type_0::SimdMultAcc            0      0.00%     79.13% # Type of FU issued
system.switch_cpus.iq.FU_type_0::SimdShift         3762      0.01%     79.14% # Type of FU issued
system.switch_cpus.iq.FU_type_0::SimdShiftAcc            0      0.00%     79.14% # Type of FU issued
system.switch_cpus.iq.FU_type_0::SimdDiv            0      0.00%     79.14% # Type of FU issued
system.switch_cpus.iq.FU_type_0::SimdSqrt            0      0.00%     79.14% # Type of FU issued
system.switch_cpus.iq.FU_type_0::SimdFloatAdd            9      0.00%     79.14% # Type of FU issued
system.switch_cpus.iq.FU_type_0::SimdFloatAlu            0      0.00%     79.14% # Type of FU issued
system.switch_cpus.iq.FU_type_0::SimdFloatCmp            0      0.00%     79.14% # Type of FU issued
system.switch_cpus.iq.FU_type_0::SimdFloatCvt          500      0.00%     79.14% # Type of FU issued
system.switch_cpus.iq.FU_type_0::SimdFloatDiv            1      0.00%     79.14% # Type of FU issued
system.switch_cpus.iq.FU_type_0::SimdFloatMisc            0      0.00%     79.14% # Type of FU issued
system.switch_cpus.iq.FU_type_0::SimdFloatMult          190      0.00%     79.14% # Type of FU issued
system.switch_cpus.iq.FU_type_0::SimdFloatMultAcc            0      0.00%     79.14% # Type of FU issued
system.switch_cpus.iq.FU_type_0::SimdFloatSqrt            1      0.00%     79.14% # Type of FU issued
system.switch_cpus.iq.FU_type_0::SimdReduceAdd            0      0.00%     79.14% # Type of FU issued
system.switch_cpus.iq.FU_type_0::SimdReduceAlu            0      0.00%     79.14% # Type of FU issued
system.switch_cpus.iq.FU_type_0::SimdReduceCmp            0      0.00%     79.14% # Type of FU issued
system.switch_cpus.iq.FU_type_0::SimdFloatReduceAdd            0      0.00%     79.14% # Type of FU issued
system.switch_cpus.iq.FU_type_0::SimdFloatReduceCmp            0      0.00%     79.14% # Type of FU issued
system.switch_cpus.iq.FU_type_0::SimdAes            0      0.00%     79.14% # Type of FU issued
system.switch_cpus.iq.FU_type_0::SimdAesMix            0      0.00%     79.14% # Type of FU issued
system.switch_cpus.iq.FU_type_0::SimdSha1Hash            0      0.00%     79.14% # Type of FU issued
system.switch_cpus.iq.FU_type_0::SimdSha1Hash2            0      0.00%     79.14% # Type of FU issued
system.switch_cpus.iq.FU_type_0::SimdSha256Hash            0      0.00%     79.14% # Type of FU issued
system.switch_cpus.iq.FU_type_0::SimdSha256Hash2            0      0.00%     79.14% # Type of FU issued
system.switch_cpus.iq.FU_type_0::SimdShaSigma2            0      0.00%     79.14% # Type of FU issued
system.switch_cpus.iq.FU_type_0::SimdShaSigma3            0      0.00%     79.14% # Type of FU issued
system.switch_cpus.iq.FU_type_0::SimdPredAlu            0      0.00%     79.14% # Type of FU issued
system.switch_cpus.iq.FU_type_0::MemRead      4078081     14.58%     93.72% # Type of FU issued
system.switch_cpus.iq.FU_type_0::MemWrite      1619073      5.79%     99.51% # Type of FU issued
system.switch_cpus.iq.FU_type_0::FloatMemRead        55769      0.20%     99.71% # Type of FU issued
system.switch_cpus.iq.FU_type_0::FloatMemWrite        81088      0.29%    100.00% # Type of FU issued
system.switch_cpus.iq.FU_type_0::IprAccess            0      0.00%    100.00% # Type of FU issued
system.switch_cpus.iq.FU_type_0::InstPrefetch            0      0.00%    100.00% # Type of FU issued
system.switch_cpus.iq.FU_type_0::total       27969847                       # Type of FU issued
system.switch_cpus.iq.fp_alu_accesses          249774                       # Number of floating point alu accesses
system.switch_cpus.iq.fp_inst_queue_reads       493103                       # Number of floating instruction queue reads
system.switch_cpus.iq.fp_inst_queue_wakeup_accesses       216398                       # Number of floating instruction queue wakeup accesses
system.switch_cpus.iq.fp_inst_queue_writes       415244                       # Number of floating instruction queue writes
system.switch_cpus.iq.fu_busy_cnt              431307                       # FU busy when requested
system.switch_cpus.iq.fu_busy_rate           0.015420                       # FU busy rate (busy events/executed inst)
system.switch_cpus.iq.fu_full::No_OpClass            0      0.00%      0.00% # attempts to use FU when none available
system.switch_cpus.iq.fu_full::IntAlu          373898     86.69%     86.69% # attempts to use FU when none available
system.switch_cpus.iq.fu_full::IntMult              0      0.00%     86.69% # attempts to use FU when none available
system.switch_cpus.iq.fu_full::IntDiv               0      0.00%     86.69% # attempts to use FU when none available
system.switch_cpus.iq.fu_full::FloatAdd             0      0.00%     86.69% # attempts to use FU when none available
system.switch_cpus.iq.fu_full::FloatCmp             0      0.00%     86.69% # attempts to use FU when none available
system.switch_cpus.iq.fu_full::FloatCvt             0      0.00%     86.69% # attempts to use FU when none available
system.switch_cpus.iq.fu_full::FloatMult            0      0.00%     86.69% # attempts to use FU when none available
system.switch_cpus.iq.fu_full::FloatMultAcc            0      0.00%     86.69% # attempts to use FU when none available
system.switch_cpus.iq.fu_full::FloatDiv             0      0.00%     86.69% # attempts to use FU when none available
system.switch_cpus.iq.fu_full::FloatMisc            0      0.00%     86.69% # attempts to use FU when none available
system.switch_cpus.iq.fu_full::FloatSqrt            0      0.00%     86.69% # attempts to use FU when none available
system.switch_cpus.iq.fu_full::SimdAdd              3      0.00%     86.69% # attempts to use FU when none available
system.switch_cpus.iq.fu_full::SimdAddAcc            0      0.00%     86.69% # attempts to use FU when none available
system.switch_cpus.iq.fu_full::SimdAlu            571      0.13%     86.82% # attempts to use FU when none available
system.switch_cpus.iq.fu_full::SimdCmp              0      0.00%     86.82% # attempts to use FU when none available
system.switch_cpus.iq.fu_full::SimdCvt            237      0.05%     86.88% # attempts to use FU when none available
system.switch_cpus.iq.fu_full::SimdMisc           371      0.09%     86.96% # attempts to use FU when none available
system.switch_cpus.iq.fu_full::SimdMult             0      0.00%     86.96% # attempts to use FU when none available
system.switch_cpus.iq.fu_full::SimdMultAcc            0      0.00%     86.96% # attempts to use FU when none available
system.switch_cpus.iq.fu_full::SimdShift          107      0.02%     86.99% # attempts to use FU when none available
system.switch_cpus.iq.fu_full::SimdShiftAcc            0      0.00%     86.99% # attempts to use FU when none available
system.switch_cpus.iq.fu_full::SimdDiv              0      0.00%     86.99% # attempts to use FU when none available
system.switch_cpus.iq.fu_full::SimdSqrt             0      0.00%     86.99% # attempts to use FU when none available
system.switch_cpus.iq.fu_full::SimdFloatAdd            0      0.00%     86.99% # attempts to use FU when none available
system.switch_cpus.iq.fu_full::SimdFloatAlu            0      0.00%     86.99% # attempts to use FU when none available
system.switch_cpus.iq.fu_full::SimdFloatCmp            0      0.00%     86.99% # attempts to use FU when none available
system.switch_cpus.iq.fu_full::SimdFloatCvt            0      0.00%     86.99% # attempts to use FU when none available
system.switch_cpus.iq.fu_full::SimdFloatDiv            0      0.00%     86.99% # attempts to use FU when none available
system.switch_cpus.iq.fu_full::SimdFloatMisc            0      0.00%     86.99% # attempts to use FU when none available
system.switch_cpus.iq.fu_full::SimdFloatMult            0      0.00%     86.99% # attempts to use FU when none available
system.switch_cpus.iq.fu_full::SimdFloatMultAcc            0      0.00%     86.99% # attempts to use FU when none available
system.switch_cpus.iq.fu_full::SimdFloatSqrt            0      0.00%     86.99% # attempts to use FU when none available
system.switch_cpus.iq.fu_full::SimdReduceAdd            0      0.00%     86.99% # attempts to use FU when none available
system.switch_cpus.iq.fu_full::SimdReduceAlu            0      0.00%     86.99% # attempts to use FU when none available
system.switch_cpus.iq.fu_full::SimdReduceCmp            0      0.00%     86.99% # attempts to use FU when none available
system.switch_cpus.iq.fu_full::SimdFloatReduceAdd            0      0.00%     86.99% # attempts to use FU when none available
system.switch_cpus.iq.fu_full::SimdFloatReduceCmp            0      0.00%     86.99% # attempts to use FU when none available
system.switch_cpus.iq.fu_full::SimdAes              0      0.00%     86.99% # attempts to use FU when none available
system.switch_cpus.iq.fu_full::SimdAesMix            0      0.00%     86.99% # attempts to use FU when none available
system.switch_cpus.iq.fu_full::SimdSha1Hash            0      0.00%     86.99% # attempts to use FU when none available
system.switch_cpus.iq.fu_full::SimdSha1Hash2            0      0.00%     86.99% # attempts to use FU when none available
system.switch_cpus.iq.fu_full::SimdSha256Hash            0      0.00%     86.99% # attempts to use FU when none available
system.switch_cpus.iq.fu_full::SimdSha256Hash2            0      0.00%     86.99% # attempts to use FU when none available
system.switch_cpus.iq.fu_full::SimdShaSigma2            0      0.00%     86.99% # attempts to use FU when none available
system.switch_cpus.iq.fu_full::SimdShaSigma3            0      0.00%     86.99% # attempts to use FU when none available
system.switch_cpus.iq.fu_full::SimdPredAlu            0      0.00%     86.99% # attempts to use FU when none available
system.switch_cpus.iq.fu_full::MemRead          33869      7.85%     94.84% # attempts to use FU when none available
system.switch_cpus.iq.fu_full::MemWrite         13256      3.07%     97.91% # attempts to use FU when none available
system.switch_cpus.iq.fu_full::FloatMemRead         3789      0.88%     98.79% # attempts to use FU when none available
system.switch_cpus.iq.fu_full::FloatMemWrite         5206      1.21%    100.00% # attempts to use FU when none available
system.switch_cpus.iq.fu_full::IprAccess            0      0.00%    100.00% # attempts to use FU when none available
system.switch_cpus.iq.fu_full::InstPrefetch            0      0.00%    100.00% # attempts to use FU when none available
system.switch_cpus.iq.int_alu_accesses       27623253                       # Number of integer alu accesses
system.switch_cpus.iq.int_inst_queue_reads     69675347                       # Number of integer instruction queue reads
system.switch_cpus.iq.int_inst_queue_wakeup_accesses     26451356                       # Number of integer instruction queue wakeup accesses
system.switch_cpus.iq.int_inst_queue_writes     45186216                       # Number of integer instruction queue writes
system.switch_cpus.iq.iqInstsAdded           32203194                       # Number of instructions added to the IQ (excludes non-spec)
system.switch_cpus.iq.iqInstsIssued          27969847                       # Number of instructions issued
system.switch_cpus.iq.iqNonSpecInstsAdded         5972                       # Number of non-speculative instructions added to the IQ
system.switch_cpus.iq.iqSquashedInstsExamined     13391703                       # Number of squashed instructions iterated over during squash; mainly for profiling
system.switch_cpus.iq.iqSquashedInstsIssued       102443                       # Number of squashed instructions issued
system.switch_cpus.iq.iqSquashedNonSpecRemoved         5267                       # Number of squashed non-spec instructions that were removed
system.switch_cpus.iq.iqSquashedOperandsExamined     18575668                       # Number of squashed operands that are examined and possibly removed from graph
system.switch_cpus.iq.issued_per_cycle::samples     13695007                       # Number of insts issued each cycle
system.switch_cpus.iq.issued_per_cycle::mean     2.042339                       # Number of insts issued each cycle
system.switch_cpus.iq.issued_per_cycle::stdev     2.443754                       # Number of insts issued each cycle
system.switch_cpus.iq.issued_per_cycle::underflows            0      0.00%      0.00% # Number of insts issued each cycle
system.switch_cpus.iq.issued_per_cycle::0      6591209     48.13%     48.13% # Number of insts issued each cycle
system.switch_cpus.iq.issued_per_cycle::1      1017886      7.43%     55.56% # Number of insts issued each cycle
system.switch_cpus.iq.issued_per_cycle::2      1028209      7.51%     63.07% # Number of insts issued each cycle
system.switch_cpus.iq.issued_per_cycle::3      1103300      8.06%     71.13% # Number of insts issued each cycle
system.switch_cpus.iq.issued_per_cycle::4      1103867      8.06%     79.19% # Number of insts issued each cycle
system.switch_cpus.iq.issued_per_cycle::5      1066702      7.79%     86.97% # Number of insts issued each cycle
system.switch_cpus.iq.issued_per_cycle::6       932228      6.81%     93.78% # Number of insts issued each cycle
system.switch_cpus.iq.issued_per_cycle::7       569551      4.16%     97.94% # Number of insts issued each cycle
system.switch_cpus.iq.issued_per_cycle::8       282055      2.06%    100.00% # Number of insts issued each cycle
system.switch_cpus.iq.issued_per_cycle::overflows            0      0.00%    100.00% # Number of insts issued each cycle
system.switch_cpus.iq.issued_per_cycle::min_value            0                       # Number of insts issued each cycle
system.switch_cpus.iq.issued_per_cycle::max_value            8                       # Number of insts issued each cycle
system.switch_cpus.iq.issued_per_cycle::total     13695007                       # Number of insts issued each cycle
system.switch_cpus.iq.rate                   1.968963                       # Inst issue rate
system.switch_cpus.iq.vec_alu_accesses              0                       # Number of vector alu accesses
system.switch_cpus.iq.vec_inst_queue_reads            0                       # Number of vector instruction queue reads
system.switch_cpus.iq.vec_inst_queue_wakeup_accesses            0                       # Number of vector instruction queue wakeup accesses
system.switch_cpus.iq.vec_inst_queue_writes            0                       # Number of vector instruction queue writes
system.switch_cpus.memDep0.conflictingLoads        61967                       # Number of conflicting loads.
system.switch_cpus.memDep0.conflictingStores        53282                       # Number of conflicting stores.
system.switch_cpus.memDep0.insertedLoads      4652542                       # Number of loads inserted to the mem dependence unit.
system.switch_cpus.memDep0.insertedStores      1938005                       # Number of stores inserted to the mem dependence unit.
system.switch_cpus.misc_regfile_reads        11647101                       # number of misc regfile reads
system.switch_cpus.misc_regfile_writes            639                       # number of misc regfile writes
system.switch_cpus.numCycles                 14205372                       # number of cpu cycles simulated
system.switch_cpus.numWorkItemsCompleted            0                       # number of work items this cpu completed
system.switch_cpus.numWorkItemsStarted              0                       # number of work items this cpu started
system.switch_cpus.timesIdled                   19033                       # Number of times that the entire CPU went into an idle state and unscheduled itself
system.tol2bus.snoop_filter.hit_multi_requests         1158                       # Number of requests hitting in the snoop filter with multiple (>1) holders of the requested data.
system.tol2bus.snoop_filter.hit_multi_snoops            7                       # Number of snoops hitting in the snoop filter with multiple (>1) holders of the requested data.
system.tol2bus.snoop_filter.hit_single_requests       124900                       # Number of requests hitting in the snoop filter with a single holder of the requested data.
system.tol2bus.snoop_filter.hit_single_snoops         1970                       # Number of snoops hitting in the snoop filter with a single holder of the requested data.
system.tol2bus.snoop_filter.tot_requests       250596                       # Total number of requests made to the snoop filter.
system.tol2bus.snoop_filter.tot_snoops           1977                       # Total number of snoops made to the snoop filter.
system.clk_domain.clock                          1000                       # Clock period in ticks
system.cpu.branchPred.lookups                       0                       # Number of BP lookups
system.cpu.branchPred.condPredicted                 0                       # Number of conditional branches predicted
system.cpu.branchPred.condIncorrect                 0                       # Number of conditional branches incorrect
system.cpu.branchPred.BTBLookups                    0                       # Number of BTB lookups
system.cpu.branchPred.BTBHits                       0                       # Number of BTB hits
system.cpu.branchPred.BTBHitPct                   nan                       # BTB Hit Percentage
system.cpu.branchPred.RASUsed                       0                       # Number of times the RAS was used to get a target.
system.cpu.branchPred.RASIncorrect                  0                       # Number of incorrect RAS predictions.
system.cpu.branchPred.indirectLookups               0                       # Number of indirect predictor lookups.
system.cpu.branchPred.indirectHits                  0                       # Number of indirect target hits.
system.cpu.branchPred.indirectMisses                0                       # Number of indirect misses.
system.cpu.branchPred.indirectMispredicted            0                       # Number of mispredicted indirect branches.
system.cpu.dcache.demand_hits::.switch_cpus.data      4680115                       # number of demand (read+write) hits
system.cpu.dcache.demand_hits::total          4680115                       # number of demand (read+write) hits
system.cpu.dcache.overall_hits::.switch_cpus.data      4680281                       # number of overall hits
system.cpu.dcache.overall_hits::total         4680281                       # number of overall hits
system.cpu.dcache.demand_misses::.switch_cpus.data       120701                       # number of demand (read+write) misses
system.cpu.dcache.demand_misses::total         120701                       # number of demand (read+write) misses
system.cpu.dcache.overall_misses::.switch_cpus.data       120727                       # number of overall misses
system.cpu.dcache.overall_misses::total        120727                       # number of overall misses
system.cpu.dcache.demand_miss_latency::.switch_cpus.data   7033063000                       # number of demand (read+write) miss cycles
system.cpu.dcache.demand_miss_latency::total   7033063000                       # number of demand (read+write) miss cycles
system.cpu.dcache.overall_miss_latency::.switch_cpus.data   7033063000                       # number of overall miss cycles
system.cpu.dcache.overall_miss_latency::total   7033063000                       # number of overall miss cycles
system.cpu.dcache.demand_accesses::.switch_cpus.data      4800816                       # number of demand (read+write) accesses
system.cpu.dcache.demand_accesses::total      4800816                       # number of demand (read+write) accesses
system.cpu.dcache.overall_accesses::.switch_cpus.data      4801008                       # number of overall (read+write) accesses
system.cpu.dcache.overall_accesses::total      4801008                       # number of overall (read+write) accesses
system.cpu.dcache.demand_miss_rate::.switch_cpus.data     0.025142                       # miss rate for demand accesses
system.cpu.dcache.demand_miss_rate::total     0.025142                       # miss rate for demand accesses
system.cpu.dcache.overall_miss_rate::.switch_cpus.data     0.025146                       # miss rate for overall accesses
system.cpu.dcache.overall_miss_rate::total     0.025146                       # miss rate for overall accesses
system.cpu.dcache.demand_avg_miss_latency::.switch_cpus.data 58268.473335                       # average overall miss latency
system.cpu.dcache.demand_avg_miss_latency::total 58268.473335                       # average overall miss latency
system.cpu.dcache.overall_avg_miss_latency::.switch_cpus.data 58255.924524                       # average overall miss latency
system.cpu.dcache.overall_avg_miss_latency::total 58255.924524                       # average overall miss latency
system.cpu.dcache.blocked_cycles::no_mshrs       200965                       # number of cycles access was blocked
system.cpu.dcache.blocked_cycles::no_targets         1308                       # number of cycles access was blocked
system.cpu.dcache.blocked::no_mshrs              3559                       # number of cycles access was blocked
system.cpu.dcache.blocked::no_targets              15                       # number of cycles access was blocked
system.cpu.dcache.avg_blocked_cycles::no_mshrs    56.466704                       # average number of cycles each access was blocked
system.cpu.dcache.avg_blocked_cycles::no_targets    87.200000                       # average number of cycles each access was blocked
system.cpu.dcache.writebacks::.writebacks        22840                       # number of writebacks
system.cpu.dcache.writebacks::total             22840                       # number of writebacks
system.cpu.dcache.demand_mshr_hits::.switch_cpus.data        75768                       # number of demand (read+write) MSHR hits
system.cpu.dcache.demand_mshr_hits::total        75768                       # number of demand (read+write) MSHR hits
system.cpu.dcache.overall_mshr_hits::.switch_cpus.data        75768                       # number of overall MSHR hits
system.cpu.dcache.overall_mshr_hits::total        75768                       # number of overall MSHR hits
system.cpu.dcache.demand_mshr_misses::.switch_cpus.data        44933                       # number of demand (read+write) MSHR misses
system.cpu.dcache.demand_mshr_misses::total        44933                       # number of demand (read+write) MSHR misses
system.cpu.dcache.overall_mshr_misses::.switch_cpus.data        44940                       # number of overall MSHR misses
system.cpu.dcache.overall_mshr_misses::total        44940                       # number of overall MSHR misses
system.cpu.dcache.demand_mshr_miss_latency::.switch_cpus.data   2579211000                       # number of demand (read+write) MSHR miss cycles
system.cpu.dcache.demand_mshr_miss_latency::total   2579211000                       # number of demand (read+write) MSHR miss cycles
system.cpu.dcache.overall_mshr_miss_latency::.switch_cpus.data   2579581500                       # number of overall MSHR miss cycles
system.cpu.dcache.overall_mshr_miss_latency::total   2579581500                       # number of overall MSHR miss cycles
system.cpu.dcache.demand_mshr_miss_rate::.switch_cpus.data     0.009359                       # mshr miss rate for demand accesses
system.cpu.dcache.demand_mshr_miss_rate::total     0.009359                       # mshr miss rate for demand accesses
system.cpu.dcache.overall_mshr_miss_rate::.switch_cpus.data     0.009361                       # mshr miss rate for overall accesses
system.cpu.dcache.overall_mshr_miss_rate::total     0.009361                       # mshr miss rate for overall accesses
system.cpu.dcache.demand_avg_mshr_miss_latency::.switch_cpus.data 57401.264104                       # average overall mshr miss latency
system.cpu.dcache.demand_avg_mshr_miss_latency::total 57401.264104                       # average overall mshr miss latency
system.cpu.dcache.overall_avg_mshr_miss_latency::.switch_cpus.data 57400.567423                       # average overall mshr miss latency
system.cpu.dcache.overall_avg_mshr_miss_latency::total 57400.567423                       # average overall mshr miss latency
system.cpu.dcache.replacements                  44634                       # number of replacements
system.cpu.dcache.ReadReq_hits::.switch_cpus.data      3472531                       # number of ReadReq hits
system.cpu.dcache.ReadReq_hits::total         3472531                       # number of ReadReq hits
system.cpu.dcache.ReadReq_misses::.switch_cpus.data       104862                       # number of ReadReq misses
system.cpu.dcache.ReadReq_misses::total        104862                       # number of ReadReq misses
system.cpu.dcache.ReadReq_miss_latency::.switch_cpus.data   5903152000                       # number of ReadReq miss cycles
system.cpu.dcache.ReadReq_miss_latency::total   5903152000                       # number of ReadReq miss cycles
system.cpu.dcache.ReadReq_accesses::.switch_cpus.data      3577393                       # number of ReadReq accesses(hits+misses)
system.cpu.dcache.ReadReq_accesses::total      3577393                       # number of ReadReq accesses(hits+misses)
system.cpu.dcache.ReadReq_miss_rate::.switch_cpus.data     0.029312                       # miss rate for ReadReq accesses
system.cpu.dcache.ReadReq_miss_rate::total     0.029312                       # miss rate for ReadReq accesses
system.cpu.dcache.ReadReq_avg_miss_latency::.switch_cpus.data 56294.482272                       # average ReadReq miss latency
system.cpu.dcache.ReadReq_avg_miss_latency::total 56294.482272                       # average ReadReq miss latency
system.cpu.dcache.ReadReq_mshr_hits::.switch_cpus.data        75745                       # number of ReadReq MSHR hits
system.cpu.dcache.ReadReq_mshr_hits::total        75745                       # number of ReadReq MSHR hits
system.cpu.dcache.ReadReq_mshr_misses::.switch_cpus.data        29117                       # number of ReadReq MSHR misses
system.cpu.dcache.ReadReq_mshr_misses::total        29117                       # number of ReadReq MSHR misses
system.cpu.dcache.ReadReq_mshr_miss_latency::.switch_cpus.data   1466022500                       # number of ReadReq MSHR miss cycles
system.cpu.dcache.ReadReq_mshr_miss_latency::total   1466022500                       # number of ReadReq MSHR miss cycles
system.cpu.dcache.ReadReq_mshr_miss_rate::.switch_cpus.data     0.008139                       # mshr miss rate for ReadReq accesses
system.cpu.dcache.ReadReq_mshr_miss_rate::total     0.008139                       # mshr miss rate for ReadReq accesses
system.cpu.dcache.ReadReq_avg_mshr_miss_latency::.switch_cpus.data 50349.366350                       # average ReadReq mshr miss latency
system.cpu.dcache.ReadReq_avg_mshr_miss_latency::total 50349.366350                       # average ReadReq mshr miss latency
system.cpu.dcache.WriteReq_hits::.switch_cpus.data      1207584                       # number of WriteReq hits
system.cpu.dcache.WriteReq_hits::total        1207584                       # number of WriteReq hits
system.cpu.dcache.WriteReq_misses::.switch_cpus.data        15839                       # number of WriteReq misses
system.cpu.dcache.WriteReq_misses::total        15839                       # number of WriteReq misses
system.cpu.dcache.WriteReq_miss_latency::.switch_cpus.data   1129911000                       # number of WriteReq miss cycles
system.cpu.dcache.WriteReq_miss_latency::total   1129911000                       # number of WriteReq miss cycles
system.cpu.dcache.WriteReq_accesses::.switch_cpus.data      1223423                       # number of WriteReq accesses(hits+misses)
system.cpu.dcache.WriteReq_accesses::total      1223423                       # number of WriteReq accesses(hits+misses)
system.cpu.dcache.WriteReq_miss_rate::.switch_cpus.data     0.012946                       # miss rate for WriteReq accesses
system.cpu.dcache.WriteReq_miss_rate::total     0.012946                       # miss rate for WriteReq accesses
system.cpu.dcache.WriteReq_avg_miss_latency::.switch_cpus.data 71337.268767                       # average WriteReq miss latency
system.cpu.dcache.WriteReq_avg_miss_latency::total 71337.268767                       # average WriteReq miss latency
system.cpu.dcache.WriteReq_mshr_hits::.switch_cpus.data           23                       # number of WriteReq MSHR hits
system.cpu.dcache.WriteReq_mshr_hits::total           23                       # number of WriteReq MSHR hits
system.cpu.dcache.WriteReq_mshr_misses::.switch_cpus.data        15816                       # number of WriteReq MSHR misses
system.cpu.dcache.WriteReq_mshr_misses::total        15816                       # number of WriteReq MSHR misses
system.cpu.dcache.WriteReq_mshr_miss_latency::.switch_cpus.data   1113188500                       # number of WriteReq MSHR miss cycles
system.cpu.dcache.WriteReq_mshr_miss_latency::total   1113188500                       # number of WriteReq MSHR miss cycles
system.cpu.dcache.WriteReq_mshr_miss_rate::.switch_cpus.data     0.012928                       # mshr miss rate for WriteReq accesses
system.cpu.dcache.WriteReq_mshr_miss_rate::total     0.012928                       # mshr miss rate for WriteReq accesses
system.cpu.dcache.WriteReq_avg_mshr_miss_latency::.switch_cpus.data 70383.693728                       # average WriteReq mshr miss latency
system.cpu.dcache.WriteReq_avg_mshr_miss_latency::total 70383.693728                       # average WriteReq mshr miss latency
system.cpu.dcache.SoftPFReq_hits::.switch_cpus.data          166                       # number of SoftPFReq hits
system.cpu.dcache.SoftPFReq_hits::total           166                       # number of SoftPFReq hits
system.cpu.dcache.SoftPFReq_misses::.switch_cpus.data           26                       # number of SoftPFReq misses
system.cpu.dcache.SoftPFReq_misses::total           26                       # number of SoftPFReq misses
system.cpu.dcache.SoftPFReq_accesses::.switch_cpus.data          192                       # number of SoftPFReq accesses(hits+misses)
system.cpu.dcache.SoftPFReq_accesses::total          192                       # number of SoftPFReq accesses(hits+misses)
system.cpu.dcache.SoftPFReq_miss_rate::.switch_cpus.data     0.135417                       # miss rate for SoftPFReq accesses
system.cpu.dcache.SoftPFReq_miss_rate::total     0.135417                       # miss rate for SoftPFReq accesses
system.cpu.dcache.SoftPFReq_mshr_misses::.switch_cpus.data            7                       # number of SoftPFReq MSHR misses
system.cpu.dcache.SoftPFReq_mshr_misses::total            7                       # number of SoftPFReq MSHR misses
system.cpu.dcache.SoftPFReq_mshr_miss_latency::.switch_cpus.data       370500                       # number of SoftPFReq MSHR miss cycles
system.cpu.dcache.SoftPFReq_mshr_miss_latency::total       370500                       # number of SoftPFReq MSHR miss cycles
system.cpu.dcache.SoftPFReq_mshr_miss_rate::.switch_cpus.data     0.036458                       # mshr miss rate for SoftPFReq accesses
system.cpu.dcache.SoftPFReq_mshr_miss_rate::total     0.036458                       # mshr miss rate for SoftPFReq accesses
system.cpu.dcache.SoftPFReq_avg_mshr_miss_latency::.switch_cpus.data 52928.571429                       # average SoftPFReq mshr miss latency
system.cpu.dcache.SoftPFReq_avg_mshr_miss_latency::total 52928.571429                       # average SoftPFReq mshr miss latency
system.cpu.dcache.power_state.pwrStateResidencyTicks::UNDEFINED   8153049000                       # Cumulative time (in ticks) in various power states
system.cpu.dcache.tags.tagsinuse                 1024                       # Cycle average of tags in use
system.cpu.dcache.tags.total_refs             4927478                       # Total number of references to valid blocks.
system.cpu.dcache.tags.sampled_refs             45658                       # Sample count of references to valid blocks.
system.cpu.dcache.tags.avg_refs            107.921460                       # Average number of references to valid blocks.
system.cpu.dcache.tags.warmup_cycle                 0                       # Cycle when the warmup percentage was hit.
system.cpu.dcache.tags.occ_blocks::.cpu.data    15.671927                       # Average occupied blocks per requestor
system.cpu.dcache.tags.occ_blocks::.switch_cpus.data  1008.328073                       # Average occupied blocks per requestor
system.cpu.dcache.tags.occ_percent::.cpu.data     0.015305                       # Average percentage of cache occupancy
system.cpu.dcache.tags.occ_percent::.switch_cpus.data     0.984695                       # Average percentage of cache occupancy
system.cpu.dcache.tags.occ_percent::total            1                       # Average percentage of cache occupancy
system.cpu.dcache.tags.occ_task_id_blocks::1024         1024                       # Occupied blocks per task id
system.cpu.dcache.tags.age_task_id_blocks_1024::0           70                       # Occupied blocks per task id
system.cpu.dcache.tags.age_task_id_blocks_1024::1          458                       # Occupied blocks per task id
system.cpu.dcache.tags.age_task_id_blocks_1024::2          467                       # Occupied blocks per task id
system.cpu.dcache.tags.age_task_id_blocks_1024::3           29                       # Occupied blocks per task id
system.cpu.dcache.tags.occ_task_id_percent::1024            1                       # Percentage of cache occupancy per task id
system.cpu.dcache.tags.tag_accesses           9646650                       # Number of tag accesses
system.cpu.dcache.tags.data_accesses          9646650                       # Number of data accesses
system.cpu.dcache.tags.power_state.pwrStateResidencyTicks::UNDEFINED   8153049000                       # Cumulative time (in ticks) in various power states
system.cpu.dtb.rdAccesses                           0                       # TLB accesses on read requests
system.cpu.dtb.wrAccesses                           0                       # TLB accesses on write requests
system.cpu.dtb.rdMisses                             0                       # TLB misses on read requests
system.cpu.dtb.wrMisses                             0                       # TLB misses on write requests
system.cpu.dtb.walker.power_state.pwrStateResidencyTicks::UNDEFINED   8153049000                       # Cumulative time (in ticks) in various power states
system.cpu.dtb_walker_cache.blocked_cycles::no_mshrs            0                       # number of cycles access was blocked
system.cpu.dtb_walker_cache.blocked_cycles::no_targets            0                       # number of cycles access was blocked
system.cpu.dtb_walker_cache.blocked::no_mshrs            0                       # number of cycles access was blocked
system.cpu.dtb_walker_cache.blocked::no_targets            0                       # number of cycles access was blocked
system.cpu.dtb_walker_cache.avg_blocked_cycles::no_mshrs          nan                       # average number of cycles each access was blocked
system.cpu.dtb_walker_cache.avg_blocked_cycles::no_targets          nan                       # average number of cycles each access was blocked
system.cpu.dtb_walker_cache.replacements            0                       # number of replacements
system.cpu.dtb_walker_cache.power_state.pwrStateResidencyTicks::UNDEFINED   8153049000                       # Cumulative time (in ticks) in various power states
system.cpu.dtb_walker_cache.tags.tagsinuse            0                       # Cycle average of tags in use
system.cpu.dtb_walker_cache.tags.total_refs            0                       # Total number of references to valid blocks.
system.cpu.dtb_walker_cache.tags.sampled_refs            0                       # Sample count of references to valid blocks.
system.cpu.dtb_walker_cache.tags.avg_refs          nan                       # Average number of references to valid blocks.
system.cpu.dtb_walker_cache.tags.warmup_cycle            0                       # Cycle when the warmup percentage was hit.
system.cpu.dtb_walker_cache.tags.tag_accesses            0                       # Number of tag accesses
system.cpu.dtb_walker_cache.tags.data_accesses            0                       # Number of data accesses
system.cpu.dtb_walker_cache.tags.power_state.pwrStateResidencyTicks::UNDEFINED   8153049000                       # Cumulative time (in ticks) in various power states
system.cpu.icache.demand_hits::.switch_cpus.inst      2925868                       # number of demand (read+write) hits
system.cpu.icache.demand_hits::total          2925868                       # number of demand (read+write) hits
system.cpu.icache.overall_hits::.switch_cpus.inst      2925868                       # number of overall hits
system.cpu.icache.overall_hits::total         2925868                       # number of overall hits
system.cpu.icache.demand_misses::.switch_cpus.inst        95212                       # number of demand (read+write) misses
system.cpu.icache.demand_misses::total          95212                       # number of demand (read+write) misses
system.cpu.icache.overall_misses::.switch_cpus.inst        95212                       # number of overall misses
system.cpu.icache.overall_misses::total         95212                       # number of overall misses
system.cpu.icache.demand_miss_latency::.switch_cpus.inst   1801160498                       # number of demand (read+write) miss cycles
system.cpu.icache.demand_miss_latency::total   1801160498                       # number of demand (read+write) miss cycles
system.cpu.icache.overall_miss_latency::.switch_cpus.inst   1801160498                       # number of overall miss cycles
system.cpu.icache.overall_miss_latency::total   1801160498                       # number of overall miss cycles
system.cpu.icache.demand_accesses::.switch_cpus.inst      3021080                       # number of demand (read+write) accesses
system.cpu.icache.demand_accesses::total      3021080                       # number of demand (read+write) accesses
system.cpu.icache.overall_accesses::.switch_cpus.inst      3021080                       # number of overall (read+write) accesses
system.cpu.icache.overall_accesses::total      3021080                       # number of overall (read+write) accesses
system.cpu.icache.demand_miss_rate::.switch_cpus.inst     0.031516                       # miss rate for demand accesses
system.cpu.icache.demand_miss_rate::total     0.031516                       # miss rate for demand accesses
system.cpu.icache.overall_miss_rate::.switch_cpus.inst     0.031516                       # miss rate for overall accesses
system.cpu.icache.overall_miss_rate::total     0.031516                       # miss rate for overall accesses
system.cpu.icache.demand_avg_miss_latency::.switch_cpus.inst 18917.368588                       # average overall miss latency
system.cpu.icache.demand_avg_miss_latency::total 18917.368588                       # average overall miss latency
system.cpu.icache.overall_avg_miss_latency::.switch_cpus.inst 18917.368588                       # average overall miss latency
system.cpu.icache.overall_avg_miss_latency::total 18917.368588                       # average overall miss latency
system.cpu.icache.blocked_cycles::no_mshrs         2496                       # number of cycles access was blocked
system.cpu.icache.blocked_cycles::no_targets          546                       # number of cycles access was blocked
system.cpu.icache.blocked::no_mshrs                45                       # number of cycles access was blocked
system.cpu.icache.blocked::no_targets               2                       # number of cycles access was blocked
system.cpu.icache.avg_blocked_cycles::no_mshrs    55.466667                       # average number of cycles each access was blocked
system.cpu.icache.avg_blocked_cycles::no_targets          273                       # average number of cycles each access was blocked
system.cpu.icache.writebacks::.writebacks        80188                       # number of writebacks
system.cpu.icache.writebacks::total             80188                       # number of writebacks
system.cpu.icache.demand_mshr_hits::.switch_cpus.inst        14378                       # number of demand (read+write) MSHR hits
system.cpu.icache.demand_mshr_hits::total        14378                       # number of demand (read+write) MSHR hits
system.cpu.icache.overall_mshr_hits::.switch_cpus.inst        14378                       # number of overall MSHR hits
system.cpu.icache.overall_mshr_hits::total        14378                       # number of overall MSHR hits
system.cpu.icache.demand_mshr_misses::.switch_cpus.inst        80834                       # number of demand (read+write) MSHR misses
system.cpu.icache.demand_mshr_misses::total        80834                       # number of demand (read+write) MSHR misses
system.cpu.icache.overall_mshr_misses::.switch_cpus.inst        80834                       # number of overall MSHR misses
system.cpu.icache.overall_mshr_misses::total        80834                       # number of overall MSHR misses
system.cpu.icache.demand_mshr_miss_latency::.switch_cpus.inst   1455657999                       # number of demand (read+write) MSHR miss cycles
system.cpu.icache.demand_mshr_miss_latency::total   1455657999                       # number of demand (read+write) MSHR miss cycles
system.cpu.icache.overall_mshr_miss_latency::.switch_cpus.inst   1455657999                       # number of overall MSHR miss cycles
system.cpu.icache.overall_mshr_miss_latency::total   1455657999                       # number of overall MSHR miss cycles
system.cpu.icache.demand_mshr_miss_rate::.switch_cpus.inst     0.026757                       # mshr miss rate for demand accesses
system.cpu.icache.demand_mshr_miss_rate::total     0.026757                       # mshr miss rate for demand accesses
system.cpu.icache.overall_mshr_miss_rate::.switch_cpus.inst     0.026757                       # mshr miss rate for overall accesses
system.cpu.icache.overall_mshr_miss_rate::total     0.026757                       # mshr miss rate for overall accesses
system.cpu.icache.demand_avg_mshr_miss_latency::.switch_cpus.inst 18007.991674                       # average overall mshr miss latency
system.cpu.icache.demand_avg_mshr_miss_latency::total 18007.991674                       # average overall mshr miss latency
system.cpu.icache.overall_avg_mshr_miss_latency::.switch_cpus.inst 18007.991674                       # average overall mshr miss latency
system.cpu.icache.overall_avg_mshr_miss_latency::total 18007.991674                       # average overall mshr miss latency
system.cpu.icache.replacements                  80188                       # number of replacements
system.cpu.icache.ReadReq_hits::.switch_cpus.inst      2925868                       # number of ReadReq hits
system.cpu.icache.ReadReq_hits::total         2925868                       # number of ReadReq hits
system.cpu.icache.ReadReq_misses::.switch_cpus.inst        95212                       # number of ReadReq misses
system.cpu.icache.ReadReq_misses::total         95212                       # number of ReadReq misses
system.cpu.icache.ReadReq_miss_latency::.switch_cpus.inst   1801160498                       # number of ReadReq miss cycles
system.cpu.icache.ReadReq_miss_latency::total   1801160498                       # number of ReadReq miss cycles
system.cpu.icache.ReadReq_accesses::.switch_cpus.inst      3021080                       # number of ReadReq accesses(hits+misses)
system.cpu.icache.ReadReq_accesses::total      3021080                       # number of ReadReq accesses(hits+misses)
system.cpu.icache.ReadReq_miss_rate::.switch_cpus.inst     0.031516                       # miss rate for ReadReq accesses
system.cpu.icache.ReadReq_miss_rate::total     0.031516                       # miss rate for ReadReq accesses
system.cpu.icache.ReadReq_avg_miss_latency::.switch_cpus.inst 18917.368588                       # average ReadReq miss latency
system.cpu.icache.ReadReq_avg_miss_latency::total 18917.368588                       # average ReadReq miss latency
system.cpu.icache.ReadReq_mshr_hits::.switch_cpus.inst        14378                       # number of ReadReq MSHR hits
system.cpu.icache.ReadReq_mshr_hits::total        14378                       # number of ReadReq MSHR hits
system.cpu.icache.ReadReq_mshr_misses::.switch_cpus.inst        80834                       # number of ReadReq MSHR misses
system.cpu.icache.ReadReq_mshr_misses::total        80834                       # number of ReadReq MSHR misses
system.cpu.icache.ReadReq_mshr_miss_latency::.switch_cpus.inst   1455657999                       # number of ReadReq MSHR miss cycles
system.cpu.icache.ReadReq_mshr_miss_latency::total   1455657999                       # number of ReadReq MSHR miss cycles
system.cpu.icache.ReadReq_mshr_miss_rate::.switch_cpus.inst     0.026757                       # mshr miss rate for ReadReq accesses
system.cpu.icache.ReadReq_mshr_miss_rate::total     0.026757                       # mshr miss rate for ReadReq accesses
system.cpu.icache.ReadReq_avg_mshr_miss_latency::.switch_cpus.inst 18007.991674                       # average ReadReq mshr miss latency
system.cpu.icache.ReadReq_avg_mshr_miss_latency::total 18007.991674                       # average ReadReq mshr miss latency
system.cpu.icache.power_state.pwrStateResidencyTicks::UNDEFINED   8153049000                       # Cumulative time (in ticks) in various power states
system.cpu.icache.tags.tagsinuse           964.646833                       # Cycle average of tags in use
system.cpu.icache.tags.total_refs             4341475                       # Total number of references to valid blocks.
system.cpu.icache.tags.sampled_refs             81504                       # Sample count of references to valid blocks.
system.cpu.icache.tags.avg_refs             53.267018                       # Average number of references to valid blocks.
system.cpu.icache.tags.warmup_cycle                 0                       # Cycle when the warmup percentage was hit.
system.cpu.icache.tags.occ_blocks::.cpu.inst   123.368223                       # Average occupied blocks per requestor
system.cpu.icache.tags.occ_blocks::.switch_cpus.inst   841.278610                       # Average occupied blocks per requestor
system.cpu.icache.tags.occ_percent::.cpu.inst     0.120477                       # Average percentage of cache occupancy
system.cpu.icache.tags.occ_percent::.switch_cpus.inst     0.821561                       # Average percentage of cache occupancy
system.cpu.icache.tags.occ_percent::total     0.942038                       # Average percentage of cache occupancy
system.cpu.icache.tags.occ_task_id_blocks::1024         1008                       # Occupied blocks per task id
system.cpu.icache.tags.age_task_id_blocks_1024::0           79                       # Occupied blocks per task id
system.cpu.icache.tags.age_task_id_blocks_1024::1          250                       # Occupied blocks per task id
system.cpu.icache.tags.age_task_id_blocks_1024::2          270                       # Occupied blocks per task id
system.cpu.icache.tags.age_task_id_blocks_1024::3          409                       # Occupied blocks per task id
system.cpu.icache.tags.occ_task_id_percent::1024     0.984375                       # Percentage of cache occupancy per task id
system.cpu.icache.tags.tag_accesses           6122994                       # Number of tag accesses
system.cpu.icache.tags.data_accesses          6122994                       # Number of data accesses
system.cpu.icache.tags.power_state.pwrStateResidencyTicks::UNDEFINED   8153049000                       # Cumulative time (in ticks) in various power states
system.cpu.interrupts.clk_domain.clock           8000                       # Clock period in ticks
system.cpu.itb.rdAccesses                           0                       # TLB accesses on read requests
system.cpu.itb.wrAccesses                           0                       # TLB accesses on write requests
system.cpu.itb.rdMisses                             0                       # TLB misses on read requests
system.cpu.itb.wrMisses                             0                       # TLB misses on write requests
system.cpu.itb.walker.power_state.pwrStateResidencyTicks::UNDEFINED   8153049000                       # Cumulative time (in ticks) in various power states
system.cpu.itb_walker_cache.blocked_cycles::no_mshrs            0                       # number of cycles access was blocked
system.cpu.itb_walker_cache.blocked_cycles::no_targets            0                       # number of cycles access was blocked
system.cpu.itb_walker_cache.blocked::no_mshrs            0                       # number of cycles access was blocked
system.cpu.itb_walker_cache.blocked::no_targets            0                       # number of cycles access was blocked
system.cpu.itb_walker_cache.avg_blocked_cycles::no_mshrs          nan                       # average number of cycles each access was blocked
system.cpu.itb_walker_cache.avg_blocked_cycles::no_targets          nan                       # average number of cycles each access was blocked
system.cpu.itb_walker_cache.replacements            0                       # number of replacements
system.cpu.itb_walker_cache.power_state.pwrStateResidencyTicks::UNDEFINED   8153049000                       # Cumulative time (in ticks) in various power states
system.cpu.itb_walker_cache.tags.tagsinuse            0                       # Cycle average of tags in use
system.cpu.itb_walker_cache.tags.total_refs            0                       # Total number of references to valid blocks.
system.cpu.itb_walker_cache.tags.sampled_refs            0                       # Sample count of references to valid blocks.
system.cpu.itb_walker_cache.tags.avg_refs          nan                       # Average number of references to valid blocks.
system.cpu.itb_walker_cache.tags.warmup_cycle            0                       # Cycle when the warmup percentage was hit.
system.cpu.itb_walker_cache.tags.tag_accesses            0                       # Number of tag accesses
system.cpu.itb_walker_cache.tags.data_accesses            0                       # Number of data accesses
system.cpu.itb_walker_cache.tags.power_state.pwrStateResidencyTicks::UNDEFINED   8153049000                       # Cumulative time (in ticks) in various power states
system.cpu.power_state.pwrStateResidencyTicks::OFF   7102686000                       # Cumulative time (in ticks) in various power states
system.cpu.thread_0.numInsts                        0                       # Number of Instructions committed
system.cpu.thread_0.numOps                          0                       # Number of Ops committed
system.cpu.thread_0.numMemRefs                      0                       # Number of Memory References
system.cpu_clk_domain.clock                       500                       # Clock period in ticks
system.cpu_voltage_domain.voltage                   1                       # Voltage in Volts
system.l2.demand_hits::.switch_cpus.inst        73740                       # number of demand (read+write) hits
system.l2.demand_hits::.switch_cpus.data        15608                       # number of demand (read+write) hits
system.l2.demand_hits::total                    89348                       # number of demand (read+write) hits
system.l2.overall_hits::.switch_cpus.inst        73740                       # number of overall hits
system.l2.overall_hits::.switch_cpus.data        15608                       # number of overall hits
system.l2.overall_hits::total                   89348                       # number of overall hits
system.l2.demand_misses::.switch_cpus.inst         6641                       # number of demand (read+write) misses
system.l2.demand_misses::.switch_cpus.data        29026                       # number of demand (read+write) misses
system.l2.demand_misses::total                  35667                       # number of demand (read+write) misses
system.l2.overall_misses::.switch_cpus.inst         6641                       # number of overall misses
system.l2.overall_misses::.switch_cpus.data        29026                       # number of overall misses
system.l2.overall_misses::total                 35667                       # number of overall misses
system.l2.demand_miss_latency::.switch_cpus.inst    556072000                       # number of demand (read+write) miss cycles
system.l2.demand_miss_latency::.switch_cpus.data   2342476500                       # number of demand (read+write) miss cycles
system.l2.demand_miss_latency::total       2898548500                       # number of demand (read+write) miss cycles
system.l2.overall_miss_latency::.switch_cpus.inst    556072000                       # number of overall miss cycles
system.l2.overall_miss_latency::.switch_cpus.data   2342476500                       # number of overall miss cycles
system.l2.overall_miss_latency::total      2898548500                       # number of overall miss cycles
system.l2.demand_accesses::.switch_cpus.inst        80381                       # number of demand (read+write) accesses
system.l2.demand_accesses::.switch_cpus.data        44634                       # number of demand (read+write) accesses
system.l2.demand_accesses::total               125015                       # number of demand (read+write) accesses
system.l2.overall_accesses::.switch_cpus.inst        80381                       # number of overall (read+write) accesses
system.l2.overall_accesses::.switch_cpus.data        44634                       # number of overall (read+write) accesses
system.l2.overall_accesses::total              125015                       # number of overall (read+write) accesses
system.l2.demand_miss_rate::.switch_cpus.inst     0.082619                       # miss rate for demand accesses
system.l2.demand_miss_rate::.switch_cpus.data     0.650311                       # miss rate for demand accesses
system.l2.demand_miss_rate::total            0.285302                       # miss rate for demand accesses
system.l2.overall_miss_rate::.switch_cpus.inst     0.082619                       # miss rate for overall accesses
system.l2.overall_miss_rate::.switch_cpus.data     0.650311                       # miss rate for overall accesses
system.l2.overall_miss_rate::total           0.285302                       # miss rate for overall accesses
system.l2.demand_avg_miss_latency::.switch_cpus.inst 83733.172715                       # average overall miss latency
system.l2.demand_avg_miss_latency::.switch_cpus.data 80702.697581                       # average overall miss latency
system.l2.demand_avg_miss_latency::total 81266.955449                       # average overall miss latency
system.l2.overall_avg_miss_latency::.switch_cpus.inst 83733.172715                       # average overall miss latency
system.l2.overall_avg_miss_latency::.switch_cpus.data 80702.697581                       # average overall miss latency
system.l2.overall_avg_miss_latency::total 81266.955449                       # average overall miss latency
system.l2.blocked_cycles::no_mshrs                  0                       # number of cycles access was blocked
system.l2.blocked_cycles::no_targets                0                       # number of cycles access was blocked
system.l2.blocked::no_mshrs                         0                       # number of cycles access was blocked
system.l2.blocked::no_targets                       0                       # number of cycles access was blocked
system.l2.avg_blocked_cycles::no_mshrs            nan                       # average number of cycles each access was blocked
system.l2.avg_blocked_cycles::no_targets          nan                       # average number of cycles each access was blocked
system.l2.writebacks::.writebacks               11678                       # number of writebacks
system.l2.writebacks::total                     11678                       # number of writebacks
system.l2.demand_mshr_hits::.switch_cpus.inst            1                       # number of demand (read+write) MSHR hits
system.l2.demand_mshr_hits::.switch_cpus.data            3                       # number of demand (read+write) MSHR hits
system.l2.demand_mshr_hits::total                   4                       # number of demand (read+write) MSHR hits
system.l2.overall_mshr_hits::.switch_cpus.inst            1                       # number of overall MSHR hits
system.l2.overall_mshr_hits::.switch_cpus.data            3                       # number of overall MSHR hits
system.l2.overall_mshr_hits::total                  4                       # number of overall MSHR hits
system.l2.demand_mshr_misses::.switch_cpus.inst         6640                       # number of demand (read+write) MSHR misses
system.l2.demand_mshr_misses::.switch_cpus.data        29023                       # number of demand (read+write) MSHR misses
system.l2.demand_mshr_misses::total             35663                       # number of demand (read+write) MSHR misses
system.l2.overall_mshr_misses::.switch_cpus.inst         6640                       # number of overall MSHR misses
system.l2.overall_mshr_misses::.switch_cpus.data        29023                       # number of overall MSHR misses
system.l2.overall_mshr_misses::total            35663                       # number of overall MSHR misses
system.l2.demand_mshr_miss_latency::.switch_cpus.inst    489624000                       # number of demand (read+write) MSHR miss cycles
system.l2.demand_mshr_miss_latency::.switch_cpus.data   2052101500                       # number of demand (read+write) MSHR miss cycles
system.l2.demand_mshr_miss_latency::total   2541725500                       # number of demand (read+write) MSHR miss cycles
system.l2.overall_mshr_miss_latency::.switch_cpus.inst    489624000                       # number of overall MSHR miss cycles
system.l2.overall_mshr_miss_latency::.switch_cpus.data   2052101500                       # number of overall MSHR miss cycles
system.l2.overall_mshr_miss_latency::total   2541725500                       # number of overall MSHR miss cycles
system.l2.demand_mshr_miss_rate::.switch_cpus.inst     0.082607                       # mshr miss rate for demand accesses
system.l2.demand_mshr_miss_rate::.switch_cpus.data     0.650244                       # mshr miss rate for demand accesses
system.l2.demand_mshr_miss_rate::total       0.285270                       # mshr miss rate for demand accesses
system.l2.overall_mshr_miss_rate::.switch_cpus.inst     0.082607                       # mshr miss rate for overall accesses
system.l2.overall_mshr_miss_rate::.switch_cpus.data     0.650244                       # mshr miss rate for overall accesses
system.l2.overall_mshr_miss_rate::total      0.285270                       # mshr miss rate for overall accesses
system.l2.demand_avg_mshr_miss_latency::.switch_cpus.inst 73738.554217                       # average overall mshr miss latency
system.l2.demand_avg_mshr_miss_latency::.switch_cpus.data 70706.043483                       # average overall mshr miss latency
system.l2.demand_avg_mshr_miss_latency::total 71270.658666                       # average overall mshr miss latency
system.l2.overall_avg_mshr_miss_latency::.switch_cpus.inst 73738.554217                       # average overall mshr miss latency
system.l2.overall_avg_mshr_miss_latency::.switch_cpus.data 70706.043483                       # average overall mshr miss latency
system.l2.overall_avg_mshr_miss_latency::total 71270.658666                       # average overall mshr miss latency
system.l2.replacements                          35562                       # number of replacements
system.l2.WritebackDirty_hits::.writebacks        22840                       # number of WritebackDirty hits
system.l2.WritebackDirty_hits::total            22840                       # number of WritebackDirty hits
system.l2.WritebackDirty_accesses::.writebacks        22840                       # number of WritebackDirty accesses(hits+misses)
system.l2.WritebackDirty_accesses::total        22840                       # number of WritebackDirty accesses(hits+misses)
system.l2.WritebackClean_hits::.writebacks        79944                       # number of WritebackClean hits
system.l2.WritebackClean_hits::total            79944                       # number of WritebackClean hits
system.l2.WritebackClean_accesses::.writebacks        79944                       # number of WritebackClean accesses(hits+misses)
system.l2.WritebackClean_accesses::total        79944                       # number of WritebackClean accesses(hits+misses)
system.l2.CleanEvict_mshr_misses::.writebacks           48                       # number of CleanEvict MSHR misses
system.l2.CleanEvict_mshr_misses::total            48                       # number of CleanEvict MSHR misses
system.l2.CleanEvict_mshr_miss_rate::.writebacks          inf                       # mshr miss rate for CleanEvict accesses
[...]
system.switch_cpus.commit.committedInstType_0::SimdCmp           60      0.00%     79.45% # Class of committed instruction
system.switch_cpus.commit.committedInstType_0::SimdCvt        10190      0.05%     79.51% # Class of committed instruction
system.switch_cpus.commit.committedInstType_0::SimdMisc        14930      0.08%     79.59% # Class of committed instruction
system.switch_cpus.commit.committedInstType_0::SimdMult            0      0.00%     79.59% # Class of committed instruction
system.switch_cpus.commit.committedInstType_0::SimdMultAcc            0      0.00%     79.59% # Class of committed instruction
system.switch_cpus.commit.committedInstType_0::SimdShift         1042      0.01%     79.59% # Class of committed instruction
system.switch_cpus.commit.committedInstType_0::SimdShiftAcc            0      0.00%     79.59% # Class of committed instruction
system.switch_cpus.commit.committedInstType_0::SimdDiv            0      0.00%     79.59% # Class of committed instruction
system.switch_cpus.commit.committedInstType_0::SimdSqrt            0      0.00%     79.59% # Class of committed instruction
system.switch_cpus.commit.committedInstType_0::SimdFloatAdd            5      0.00%     79.59% # Class of committed instruction
system.switch_cpus.commit.committedInstType_0::SimdFloatAlu            0      0.00%     79.59% # Class of committed instruction
system.switch_cpus.commit.committedInstType_0::SimdFloatCmp            0      0.00%     79.59% # Class of committed instruction
system.switch_cpus.commit.committedInstType_0::SimdFloatCvt          178      0.00%     79.59% # Class of committed instruction
system.switch_cpus.commit.committedInstType_0::SimdFloatDiv            1      0.00%     79.59% # Class of committed instruction
system.switch_cpus.commit.committedInstType_0::SimdFloatMisc            0      0.00%     79.59% # Class of committed instruction
system.switch_cpus.commit.committedInstType_0::SimdFloatMult           62      0.00%     79.59% # Class of committed instruction
system.switch_cpus.commit.committedInstType_0::SimdFloatMultAcc            0      0.00%     79.59% # Class of committed instruction
system.switch_cpus.commit.committedInstType_0::SimdFloatSqrt            1      0.00%     79.59% # Class of committed instruction
system.switch_cpus.commit.committedInstType_0::SimdReduceAdd            0      0.00%     79.59% # Class of committed instruction
system.switch_cpus.commit.committedInstType_0::SimdReduceAlu            0      0.00%     79.59% # Class of committed instruction
system.switch_cpus.commit.committedInstType_0::SimdReduceCmp            0      0.00%     79.59% # Class of committed instruction
system.switch_cpus.commit.committedInstType_0::SimdFloatReduceAdd            0      0.00%     79.59% # Class of committed instruction
system.switch_cpus.commit.committedInstType_0::SimdFloatReduceCmp            0      0.00%     79.59% # Class of committed instruction
system.switch_cpus.commit.committedInstType_0::SimdAes            0      0.00%     79.59% # Class of committed instruction
system.switch_cpus.commit.committedInstType_0::SimdAesMix            0      0.00%     79.59% # Class of committed instruction
system.switch_cpus.commit.committedInstType_0::SimdSha1Hash            0      0.00%     79.59% # Class of committed instruction
system.switch_cpus.commit.committedInstType_0::SimdSha1Hash2            0      0.00%     79.59% # Class of committed instruction
system.switch_cpus.commit.committedInstType_0::SimdSha256Hash            0      0.00%     79.59% # Class of committed instruction
system.switch_cpus.commit.committedInstType_0::SimdSha256Hash2            0      0.00%     79.59% # Class of committed instruction
system.switch_cpus.commit.committedInstType_0::SimdShaSigma2            0      0.00%     79.59% # Class of committed instruction
system.switch_cpus.commit.committedInstType_0::SimdShaSigma3            0      0.00%     79.59% # Class of committed instruction
system.switch_cpus.commit.committedInstType_0::SimdPredAlu            0      0.00%     79.59% # Class of committed instruction
system.switch_cpus.commit.committedInstType_0::MemRead      2584754     13.74%     93.33% # Class of committed instruction
system.switch_cpus.commit.committedInstType_0::MemWrite      1160959      6.17%     99.50% # Class of committed instruction
system.switch_cpus.commit.committedInstType_0::FloatMemRead        32628      0.17%     99.67% # Class of committed instruction
system.switch_cpus.commit.committedInstType_0::FloatMemWrite        61595      0.33%    100.00% # Class of committed instruction
system.switch_cpus.commit.committedInstType_0::IprAccess            0      0.00%    100.00% # Class of committed instruction
system.switch_cpus.commit.committedInstType_0::InstPrefetch            0      0.00%    100.00% # Class of committed instruction
system.switch_cpus.commit.committedInstType_0::total     18817440                       # Class of committed instruction
system.switch_cpus.commit.commitEligibleSamples       928463                       # number cycles where commit BW limit reached
system.switch_cpus.decode.idleCycles          4130430                       # Number of cycles decode is idle
system.switch_cpus.decode.blockedCycles       3663436                       # Number of cycles decode is blocked
system.switch_cpus.decode.runCycles           5052321                       # Number of cycles decode is running
system.switch_cpus.decode.unblockCycles        469764                       # Number of cycles decode is unblocking
system.switch_cpus.decode.squashCycles         379054                       # Number of cycles decode is squashing
system.switch_cpus.decode.branchResolved      1849274                       # Number of times decode resolved a  branch
system.switch_cpus.decode.branchMispred         27428                       # Number of times decode detected a branch misprediction
system.switch_cpus.decode.decodedInsts       36688633                       # Number of instructions handled by decode
system.switch_cpus.decode.squashedInsts        125010                       # Number of squashed instructions handled by decode
system.switch_cpus.dtb.rdAccesses             3920562                       # TLB accesses on read requests
system.switch_cpus.dtb.wrAccesses             1618417                       # TLB accesses on write requests
system.switch_cpus.dtb.rdMisses                  6560                       # TLB misses on read requests
system.switch_cpus.dtb.wrMisses                  1444                       # TLB misses on write requests
system.switch_cpus.dtb.walker.power_state.pwrStateResidencyTicks::UNDEFINED   8153049000                       # Cumulative time (in ticks) in various power states
system.switch_cpus.fetch.icacheStallCycles      4670135                       # Number of cycles fetch is stalled on an Icache miss
system.switch_cpus.fetch.insts               20207251                       # Number of instructions fetch has processed
system.switch_cpus.fetch.branches             4627888                       # Number of branches that fetch encountered
system.switch_cpus.fetch.predictedBranches      2513183                       # Number of branches that fetch has predicted taken
system.switch_cpus.fetch.cycles               8559466                       # Number of cycles fetch has run and was not squashing or blocked
system.switch_cpus.fetch.squashCycles          811550                       # Number of cycles fetch has spent squashing
system.switch_cpus.fetch.miscStallCycles         7009                       # Number of cycles fetch has spent waiting on interrupts,or bad addresses, or out of MSHRs
system.switch_cpus.fetch.pendingTrapStallCycles        52241                       # Number of stall cycles due to pending traps
system.switch_cpus.fetch.pendingQuiesceStallCycles           26                       # Number of stall cycles due to pending quiesce instructions
system.switch_cpus.fetch.icacheWaitRetryStallCycles          355                       # Number of stall cycles due to full MSHR
system.switch_cpus.fetch.cacheLines           3021081                       # Number of cache lines fetched
system.switch_cpus.fetch.icacheSquashes        135924                       # Number of outstanding Icache misses that were squashed
system.switch_cpus.fetch.nisnDist::samples     13695007                       # Number of instructions fetched each cycle (Total)
system.switch_cpus.fetch.nisnDist::mean      2.879391                       # Number of instructions fetched each cycle (Total)
system.switch_cpus.fetch.nisnDist::stdev     3.498914                       # Number of instructions fetched each cycle (Total)
system.switch_cpus.fetch.nisnDist::underflows            0      0.00%      0.00% # Number of instructions fetched each cycle (Total)
system.switch_cpus.fetch.nisnDist::0          7382940     53.91%     53.91% # Number of instructions fetched each cycle (Total)
system.switch_cpus.fetch.nisnDist::1           419840      3.07%     56.98% # Number of instructions fetched each cycle (Total)
system.switch_cpus.fetch.nisnDist::2           312194      2.28%     59.25% # Number of instructions fetched each cycle (Total)
system.switch_cpus.fetch.nisnDist::3           327195      2.39%     61.64% # Number of instructions fetched each cycle (Total)
system.switch_cpus.fetch.nisnDist::4           508337      3.71%     65.36% # Number of instructions fetched each cycle (Total)
system.switch_cpus.fetch.nisnDist::5           464635      3.39%     68.75% # Number of instructions fetched each cycle (Total)
system.switch_cpus.fetch.nisnDist::6           374588      2.74%     71.48% # Number of instructions fetched each cycle (Total)
system.switch_cpus.fetch.nisnDist::7           438803      3.20%     74.69% # Number of instructions fetched each cycle (Total)
system.switch_cpus.fetch.nisnDist::8          3466475     25.31%    100.00% # Number of instructions fetched each cycle (Total)
system.switch_cpus.fetch.nisnDist::overflows            0      0.00%    100.00% # Number of instructions fetched each cycle (Total)
system.switch_cpus.fetch.nisnDist::min_value            0                       # Number of instructions fetched each cycle (Total)
system.switch_cpus.fetch.nisnDist::max_value            8                       # Number of instructions fetched each cycle (Total)
system.switch_cpus.fetch.nisnDist::total     13695007                       # Number of instructions fetched each cycle (Total)
system.switch_cpus.fetch.branchRate          0.325784                       # Number of branch fetches per cycle
system.switch_cpus.fetch.rate                1.422508                       # Number of inst fetches per cycle
system.switch_cpus.itb.rdAccesses                   0                       # TLB accesses on read requests
system.switch_cpus.itb.wrAccesses             3030764                       # TLB accesses on write requests
system.switch_cpus.itb.rdMisses                     0                       # TLB misses on read requests
system.switch_cpus.itb.wrMisses                 38278                       # TLB misses on write requests
system.switch_cpus.itb.walker.power_state.pwrStateResidencyTicks::UNDEFINED   8153049000                       # Cumulative time (in ticks) in various power states
system.switch_cpus.lsq0.forwLoads              338055                       # Number of loads that had data forwarded from stores
system.switch_cpus.lsq0.squashedLoads         2035150                       # Number of loads squashed
system.switch_cpus.lsq0.ignoredResponses         4486                       # Number of memory responses ignored because the instruction is squashed
system.switch_cpus.lsq0.memOrderViolation          636                       # Number of memory ordering violations
system.switch_cpus.lsq0.squashedStores         715449                       # Number of stores squashed
system.switch_cpus.lsq0.rescheduledLoads          178                       # Number of loads that were rescheduled
system.switch_cpus.lsq0.blockedByCache           2848                       # Number of times an access to memory failed due to the cache being blocked
system.switch_cpus.power_state.pwrStateResidencyTicks::OFF   8153049000                       # Cumulative time (in ticks) in various power states
system.switch_cpus.rename.squashCycles         379054                       # Number of cycles rename is squashing
system.switch_cpus.rename.idleCycles          4453440                       # Number of cycles rename is idle
system.switch_cpus.rename.blockCycles         2725738                       # Number of cycles rename is blocking
system.switch_cpus.rename.serializeStallCycles        12784                       # count of cycles rename stalledfor serializing inst
system.switch_cpus.rename.runCycles           5155088                       # Number of cycles rename is running
system.switch_cpus.rename.unblockCycles        968881                       # Number of cycles rename is unblocking
system.switch_cpus.rename.renamedInsts       35076873                       # Number of instructions processed by rename
system.switch_cpus.rename.ROBFullEvents         16817                       # Number of times rename has blocked due to ROB full
system.switch_cpus.rename.IQFullEvents         313072                       # Number of times rename has blocked due to IQ full
system.switch_cpus.rename.LQFullEvents          44027                       # Number of times rename has blocked due to LQ full
system.switch_cpus.rename.SQFullEvents         562940                       # Number of times rename has blocked due to SQ full
system.switch_cpus.rename.fullRegistersEvents           55                       # Number of times there has been no free registers
system.switch_cpus.rename.renamedOperands     40865841                       # Number of destination operands rename has renamed
system.switch_cpus.rename.lookups            90073563                       # Number of register rename lookups that rename has made
system.switch_cpus.rename.intLookups         55458145                       # Number of integer rename lookups
system.switch_cpus.rename.fpLookups            386084                       # Number of floating rename lookups
system.switch_cpus.rename.committedMaps      22061476                       # Number of HB maps that are committed
system.switch_cpus.rename.undoneMaps         18804330                       # Number of HB maps that are undone due to squashing
system.switch_cpus.rename.serializing             703                       # count of serializing insts renamed
system.switch_cpus.rename.tempSerializing          695                       # count of temporary serializing insts renamed
system.switch_cpus.rename.skidInsts           1280803                       # count of insts added to the skid buffer
system.switch_cpus.rob.reads                 43068451                       # The number of ROB reads
system.switch_cpus.rob.writes                66303201                       # The number of ROB writes
system.switch_cpus.thread_0.numInsts         10000000                       # Number of Instructions committed
system.switch_cpus.thread_0.numOps           18817440                       # Number of Ops committed
system.switch_cpus.thread_0.numMemRefs              0                       # Number of Memory References
system.tol2bus.trans_dist::ReadResp            109958                       # Transaction distribution
system.tol2bus.trans_dist::WritebackDirty        34518                       # Transaction distribution
system.tol2bus.trans_dist::WritebackClean        80188                       # Transaction distribution
system.tol2bus.trans_dist::CleanEvict           45678                       # Transaction distribution
system.tol2bus.trans_dist::UpgradeReq             306                       # Transaction distribution
system.tol2bus.trans_dist::UpgradeResp            306                       # Transaction distribution
system.tol2bus.trans_dist::ReadExReq            15510                       # Transaction distribution
system.tol2bus.trans_dist::ReadExResp           15510                       # Transaction distribution
system.tol2bus.trans_dist::ReadCleanReq         80834                       # Transaction distribution
system.tol2bus.trans_dist::ReadSharedReq        29124                       # Transaction distribution
system.tol2bus.pkt_count_system.cpu.icache.mem_side_port::system.l2.cpu_side_port       241403                       # Packet count per connected requestor and responder (bytes)
system.tol2bus.pkt_count_system.cpu.dcache.mem_side_port::system.l2.cpu_side_port       134514                       # Packet count per connected requestor and responder (bytes)
system.tol2bus.pkt_count::total                375917                       # Packet count per connected requestor and responder (bytes)
system.tol2bus.pkt_size_system.cpu.icache.mem_side_port::system.l2.cpu_side_port     10276416                       # Cumulative packet size per connected requestor and responder (bytes)
system.tol2bus.pkt_size_system.cpu.dcache.mem_side_port::system.l2.cpu_side_port      4318336                       # Cumulative packet size per connected requestor and responder (bytes)
system.tol2bus.pkt_size::total               14594752                       # Cumulative packet size per connected requestor and responder (bytes)
system.tol2bus.snoops                           36015                       # Total snoops (count)
system.tol2bus.snoopTraffic                    776384                       # Total snoop traffic (bytes)
system.tol2bus.snoop_fanout::samples           161336                       # Request fanout histogram
system.tol2bus.snoop_fanout::mean            0.019878                       # Request fanout histogram
system.tol2bus.snoop_fanout::stdev           0.139891                       # Request fanout histogram
system.tol2bus.snoop_fanout::underflows             0      0.00%      0.00% # Request fanout histogram
system.tol2bus.snoop_fanout::0                 158136     98.02%     98.02% # Request fanout histogram
system.tol2bus.snoop_fanout::1                   3193      1.98%    100.00% # Request fanout histogram
system.tol2bus.snoop_fanout::2                      7      0.00%    100.00% # Request fanout histogram
system.tol2bus.snoop_fanout::3                      0      0.00%    100.00% # Request fanout histogram
system.tol2bus.snoop_fanout::4                      0      0.00%    100.00% # Request fanout histogram
system.tol2bus.snoop_fanout::overflows              0      0.00%    100.00% # Request fanout histogram
system.tol2bus.snoop_fanout::min_value              0                       # Request fanout histogram
system.tol2bus.snoop_fanout::max_value              2                       # Request fanout histogram
system.tol2bus.snoop_fanout::total             161336                       # Request fanout histogram
system.tol2bus.power_state.pwrStateResidencyTicks::UNDEFINED   8153049000                       # Cumulative time (in ticks) in various power states
system.tol2bus.reqLayer0.occupancy          228326499                       # Layer occupancy (ticks)
system.tol2bus.reqLayer0.utilization              3.2                       # Layer utilization (%)
system.tol2bus.respLayer0.occupancy         121285431                       # Layer occupancy (ticks)
system.tol2bus.respLayer0.utilization             1.7                       # Layer utilization (%)
system.tol2bus.respLayer1.occupancy          67118471                       # Layer occupancy (ticks)
system.tol2bus.respLayer1.utilization             0.9                       # Layer utilization (%)
system.voltage_domain.voltage                       1                       # Voltage in Volts

---------- End Simulation Statistics   ----------
