
---------- Begin Simulation Statistics ----------
final_tick                               128946461500                       # Number of ticks from beginning of simulation (restored from checkpoints and never reset)
host_inst_rate                                  33495                       # Simulator instruction rate (inst/s)
host_mem_usage                                8546472                       # Number of bytes of host memory used
host_op_rate                                    66488                       # Simulator op (including micro ops) rate (op/s)
host_seconds                                   328.41                       # Real time elapsed on the host
host_tick_rate                              389270806                       # Simulator tick rate (ticks/s)
sim_freq                                 1000000000000                       # Frequency of simulated ticks
sim_insts                                    11000001                       # Number of instructions simulated
sim_ops                                      21835411                       # Number of ops (including micro ops) simulated
sim_seconds                                  0.127840                       # Number of seconds simulated
sim_ticks                                127840282000                       # Number of ticks simulated
system.cpu.committedInsts                           0                       # Number of instructions committed
system.cpu.committedOps                             0                       # Number of ops (including micro ops) committed
system.cpu.idle_fraction                            0                       # Percentage of idle cycles
system.cpu.not_idle_fraction                        1                       # Percentage of non-idle cycles
system.cpu.numCycles                                0                       # number of cpu cycles simulated
system.cpu.numWorkItemsCompleted                    0                       # number of work items this cpu completed
system.cpu.numWorkItemsStarted                      0                       # number of work items this cpu started
system.cpu.num_busy_cycles                          0                       # Number of busy cycles
system.cpu.num_conditional_control_insts            0                       # number of instructions that are conditional controls
system.cpu.num_fp_alu_accesses                      0                       # Number of float alu accesses
system.cpu.num_fp_insts                             0                       # number of float instructions
system.cpu.num_fp_register_reads                    0                       # number of times the floating registers were read
system.cpu.num_fp_register_writes                   0                       # number of times the floating registers were written
system.cpu.num_func_calls                           0                       # number of times a function call or return occured
system.cpu.num_idle_cycles                          0                       # Number of idle cycles
system.cpu.num_int_alu_accesses                     0                       # Number of integer alu accesses
system.cpu.num_int_insts                            0                       # number of integer instructions
system.cpu.num_int_register_reads                   0                       # number of times the integer registers were read
system.cpu.num_int_register_writes                  0                       # number of times the integer registers were written
system.cpu.num_load_insts                           0                       # Number of load instructions
system.cpu.num_mem_refs                             0                       # number of memory refs
system.cpu.num_store_insts                          0                       # Number of store instructions
system.cpu.num_vec_alu_accesses                     0                       # Number of vector alu accesses
system.cpu.num_vec_insts                            0                       # number of vector instructions
system.cpu.num_vec_register_reads                   0                       # number of times the vector registers were read
system.cpu.num_vec_register_writes                  0                       # number of times the vector registers were written
system.cpu.op_class::No_OpClass                     0                       # Class of executed instruction
system.cpu.op_class::IntAlu                         0                       # Class of executed instruction
system.cpu.op_class::IntMult                        0                       # Class of executed instruction
system.cpu.op_class::IntDiv                         0                       # Class of executed instruction
system.cpu.op_class::FloatAdd                       0                       # Class of executed instruction
system.cpu.op_class::FloatCmp                       0                       # Class of executed instruction
system.cpu.op_class::FloatCvt                       0                       # Class of executed instruction
system.cpu.op_class::FloatMult                      0                       # Class of executed instruction
system.cpu.op_class::FloatMultAcc                   0                       # Class of executed instruction
system.cpu.op_class::FloatDiv                       0                       # Class of executed instruction
system.cpu.op_class::FloatMisc                      0                       # Class of executed instruction
system.cpu.op_class::FloatSqrt                      0                       # Class of executed instruction
system.cpu.op_class::SimdAdd                        0                       # Class of executed instruction
system.cpu.op_class::SimdAddAcc                     0                       # Class of executed instruction
system.cpu.op_class::SimdAlu                        0                       # Class of executed instruction
system.cpu.op_class::SimdCmp                        0                       # Class of executed instruction
system.cpu.op_class::SimdCvt                        0                       # Class of executed instruction
system.cpu.op_class::SimdMisc                       0                       # Class of executed instruction
system.cpu.op_class::SimdMult                       0                       # Class of executed instruction
system.cpu.op_class::SimdMultAcc                    0                       # Class of executed instruction
system.cpu.op_class::SimdShift                      0                       # Class of executed instruction
system.cpu.op_class::SimdShiftAcc                   0                       # Class of executed instruction
system.cpu.op_class::SimdDiv                        0                       # Class of executed instruction
system.cpu.op_class::SimdSqrt                       0                       # Class of executed instruction
system.cpu.op_class::SimdFloatAdd                   0                       # Class of executed instruction
system.cpu.op_class::SimdFloatAlu                   0                       # Class of executed instruction
system.cpu.op_class::SimdFloatCmp                   0                       # Class of executed instruction
system.cpu.op_class::SimdFloatCvt                   0                       # Class of executed instruction
system.cpu.op_class::SimdFloatDiv                   0                       # Class of executed instruction
system.cpu.op_class::SimdFloatMisc                  0                       # Class of executed instruction
system.cpu.op_class::SimdFloatMult                  0                       # Class of executed instruction
system.cpu.op_class::SimdFloatMultAcc               0                       # Class of executed instruction
system.cpu.op_class::SimdFloatSqrt                  0                       # Class of executed instruction
system.cpu.op_class::SimdReduceAdd                  0                       # Class of executed instruction
system.cpu.op_class::SimdReduceAlu                  0                       # Class of executed instruction
system.cpu.op_class::SimdReduceCmp                  0                       # Class of executed instruction
system.cpu.op_class::SimdFloatReduceAdd             0                       # Class of executed instruction
system.cpu.op_class::SimdFloatReduceCmp             0                       # Class of executed instruction
system.cpu.op_class::SimdAes                        0                       # Class of executed instruction
system.cpu.op_class::SimdAesMix                     0                       # Class of executed instruction
system.cpu.op_class::SimdSha1Hash                   0                       # Class of executed instruction
system.cpu.op_class::SimdSha1Hash2                  0                       # Class of executed instruction
system.cpu.op_class::SimdSha256Hash                 0                       # Class of executed instruction
system.cpu.op_class::SimdSha256Hash2                0                       # Class of executed instruction
system.cpu.op_class::SimdShaSigma2                  0                       # Class of executed instruction
system.cpu.op_class::SimdShaSigma3                  0                       # Class of executed instruction
system.cpu.op_class::SimdPredAlu                    0                       # Class of executed instruction
system.cpu.op_class::MemRead                        0                       # Class of executed instruction
system.cpu.op_class::MemWrite                       0                       # Class of executed instruction
system.cpu.op_class::FloatMemRead                   0                       # Class of executed instruction
system.cpu.op_class::FloatMemWrite                  0                       # Class of executed instruction
system.cpu.op_class::IprAccess                      0                       # Class of executed instruction
system.cpu.op_class::InstPrefetch                   0                       # Class of executed instruction
system.cpu.op_class::total                          0                       # Class of executed instruction
system.cpu.workload.numSyscalls                     0                       # Number of system calls
system.membus.snoop_filter.hit_multi_requests            0                       # Number of requests hitting in the snoop filter with multiple (>1) holders of the requested data.
system.membus.snoop_filter.hit_multi_snoops            0                       # Number of snoops hitting in the snoop filter with multiple (>1) holders of the requested data.
system.membus.snoop_filter.hit_single_requests      1410419                       # Number of requests hitting in the snoop filter with a single holder of the requested data.
system.membus.snoop_filter.hit_single_snoops            0                       # Number of snoops hitting in the snoop filter with a single holder of the requested data.
system.membus.snoop_filter.tot_requests       2825016                       # Total number of requests made to the snoop filter.
system.membus.snoop_filter.tot_snoops               0                       # Total number of snoops made to the snoop filter.
system.switch_cpus.cc_regfile_reads           7721303                       # number of cc regfile reads
system.switch_cpus.cc_regfile_writes          6165440                       # number of cc regfile writes
system.switch_cpus.committedInsts            10000000                       # Number of Instructions Simulated
system.switch_cpus.committedOps              19993690                       # Number of Ops (including micro ops) Simulated
system.switch_cpus.cpi                      25.568056                       # CPI: Cycles Per Instruction
system.switch_cpus.cpi_total                25.568056                       # CPI: Total CPI of All Threads
system.switch_cpus.fp_regfile_reads          12043009                       # number of floating regfile reads
system.switch_cpus.fp_regfile_writes              121                       # number of floating regfile writes
system.switch_cpus.idleCycles                    2916                       # Total number of cycles that the CPU has spent unscheduled due to idling
system.switch_cpus.iew.branchMispredicts         9333                       # Number of branch mispredicts detected at execute
system.switch_cpus.iew.exec_branches          1540221                       # Number of branches executed
system.switch_cpus.iew.exec_nop                     0                       # number of nop insts executed
system.switch_cpus.iew.exec_rate             0.083657                       # Inst execution rate
system.switch_cpus.iew.exec_refs             12080827                       # number of memory reference insts executed
system.switch_cpus.iew.exec_stores           12052151                       # Number of stores executed
system.switch_cpus.iew.exec_swp                     0                       # number of swp insts executed
system.switch_cpus.iew.iewBlockCycles          155967                       # Number of cycles IEW is blocking
system.switch_cpus.iew.iewDispLoadInsts         33982                       # Number of dispatched load instructions
system.switch_cpus.iew.iewDispNonSpecInsts            0                       # Number of dispatched non-speculative instructions
system.switch_cpus.iew.iewDispSquashedInsts          752                       # Number of squashed instructions skipped by dispatch
system.switch_cpus.iew.iewDispStoreInsts     12062303                       # Number of dispatched store instructions
system.switch_cpus.iew.iewDispatchedInsts     21476368                       # Number of instructions dispatched to IQ
system.switch_cpus.iew.iewExecLoadInsts         28676                       # Number of load instructions executed
system.switch_cpus.iew.iewExecSquashedInsts        25092                       # Number of squashed instructions skipped in execute
system.switch_cpus.iew.iewExecutedInsts      21389507                       # Number of executed instructions
system.switch_cpus.iew.iewIQFullEvents              2                       # Number of times the IQ has become full, causing a stall
system.switch_cpus.iew.iewIdleCycles                0                       # Number of cycles IEW is idle
system.switch_cpus.iew.iewLSQFullEvents     119084062                       # Number of times the LSQ has become full, causing a stall
system.switch_cpus.iew.iewSquashCycles          29893                       # Number of cycles IEW is squashing
system.switch_cpus.iew.iewUnblockCycles     119084124                       # Number of cycles IEW is unblocking
system.switch_cpus.iew.memOrderViolationEvents           14                       # Number of memory order violations
system.switch_cpus.iew.predictedNotTakenIncorrect         5078                       # Number of branches that were predicted not taken incorrectly
system.switch_cpus.iew.predictedTakenIncorrect         4255                       # Number of branches that were predicted taken incorrectly
system.switch_cpus.iew.wb_consumers          11151305                       # num instructions consuming a value
system.switch_cpus.iew.wb_count              20696166                       # cumulative count of insts written-back
system.switch_cpus.iew.wb_fanout             0.674629                       # average fanout of values written-back
system.switch_cpus.iew.wb_producers           7522997                       # num instructions producing a value
system.switch_cpus.iew.wb_rate               0.080945                       # insts written-back per cycle
system.switch_cpus.iew.wb_sent               21385175                       # cumulative count of insts sent to commit
system.switch_cpus.int_regfile_reads         33474559                       # number of integer regfile reads
system.switch_cpus.int_regfile_writes         7793249                       # number of integer regfile writes
system.switch_cpus.ipc                       0.039111                       # IPC: Instructions Per Cycle
system.switch_cpus.ipc_total                 0.039111                       # IPC: Total IPC of All Threads
system.switch_cpus.iq.FU_type_0::No_OpClass         1003      0.00%      0.00% # Type of FU issued
system.switch_cpus.iq.FU_type_0::IntAlu       9326188     43.55%     43.56% # Type of FU issued
system.switch_cpus.iq.FU_type_0::IntMult         1060      0.00%     43.56% # Type of FU issued
system.switch_cpus.iq.FU_type_0::IntDiv             0      0.00%     43.56% # Type of FU issued
system.switch_cpus.iq.FU_type_0::FloatAdd            1      0.00%     43.56% # Type of FU issued
system.switch_cpus.iq.FU_type_0::FloatCmp            0      0.00%     43.56% # Type of FU issued
system.switch_cpus.iq.FU_type_0::FloatCvt            0      0.00%     43.56% # Type of FU issued
system.switch_cpus.iq.FU_type_0::FloatMult            0      0.00%     43.56% # Type of FU issued
system.switch_cpus.iq.FU_type_0::FloatMultAcc            0      0.00%     43.56% # Type of FU issued
system.switch_cpus.iq.FU_type_0::FloatDiv            0      0.00%     43.56% # Type of FU issued
system.switch_cpus.iq.FU_type_0::FloatMisc            0      0.00%     43.56% # Type of FU issued
system.switch_cpus.iq.FU_type_0::FloatSqrt            0      0.00%     43.56% # Type of FU issued
system.switch_cpus.iq.FU_type_0::SimdAdd            0      0.00%     43.56% # Type of FU issued
system.switch_cpus.iq.FU_type_0::SimdAddAcc            0      0.00%     43.56% # Type of FU issued
system.switch_cpus.iq.FU_type_0::SimdAlu           72      0.00%     43.56% # Type of FU issued
system.switch_cpus.iq.FU_type_0::SimdCmp            0      0.00%     43.56% # Type of FU issued
system.switch_cpus.iq.FU_type_0::SimdCvt            0      0.00%     43.56% # Type of FU issued
system.switch_cpus.iq.FU_type_0::SimdMisc            7      0.00%     43.56% # Type of FU issued
system.switch_cpus.iq.FU_type_0::SimdMult            0      0.00%     43.56% # Type of FU issued
system.switch_cpus.iq.FU_type_0::SimdMultAcc            0      0.00%     43.56% # Type of FU issued
system.switch_cpus.iq.FU_type_0::SimdShift            0      0.00%     43.56% # Type of FU issued
system.switch_cpus.iq.FU_type_0::SimdShiftAcc            0      0.00%     43.56% # Type of FU issued
system.switch_cpus.iq.FU_type_0::SimdDiv            0      0.00%     43.56% # Type of FU issued
system.switch_cpus.iq.FU_type_0::SimdSqrt            0      0.00%     43.56% # Type of FU issued
system.switch_cpus.iq.FU_type_0::SimdFloatAdd            0      0.00%     43.56% # Type of FU issued
system.switch_cpus.iq.FU_type_0::SimdFloatAlu            0      0.00%     43.56% # Type of FU issued
system.switch_cpus.iq.FU_type_0::SimdFloatCmp            0      0.00%     43.56% # Type of FU issued
system.switch_cpus.iq.FU_type_0::SimdFloatCvt            0      0.00%     43.56% # Type of FU issued
system.switch_cpus.iq.FU_type_0::SimdFloatDiv            0      0.00%     43.56% # Type of FU issued
system.switch_cpus.iq.FU_type_0::SimdFloatMisc            0      0.00%     43.56% # Type of FU issued
system.switch_cpus.iq.FU_type_0::SimdFloatMult            0      0.00%     43.56% # Type of FU issued
system.switch_cpus.iq.FU_type_0::SimdFloatMultAcc            0      0.00%     43.56% # Type of FU issued
system.switch_cpus.iq.FU_type_0::SimdFloatSqrt            0      0.00%     43.56% # Type of FU issued
system.switch_cpus.iq.FU_type_0::SimdReduceAdd            0      0.00%     43.56% # Type of FU issued
system.switch_cpus.iq.FU_type_0::SimdReduceAlu            0      0.00%     43.56% # Type of FU issued
system.switch_cpus.iq.FU_type_0::SimdReduceCmp            0      0.00%     43.56% # Type of FU issued
system.switch_cpus.iq.FU_type_0::SimdFloatReduceAdd            0      0.00%     43.56% # Type of FU issued
system.switch_cpus.iq.FU_type_0::SimdFloatReduceCmp            0      0.00%     43.56% # Type of FU issued
system.switch_cpus.iq.FU_type_0::SimdAes            0      0.00%     43.56% # Type of FU issued
system.switch_cpus.iq.FU_type_0::SimdAesMix            0      0.00%     43.56% # Type of FU issued
system.switch_cpus.iq.FU_type_0::SimdSha1Hash            0      0.00%     43.56% # Type of FU issued
system.switch_cpus.iq.FU_type_0::SimdSha1Hash2            0      0.00%     43.56% # Type of FU issued
system.switch_cpus.iq.FU_type_0::SimdSha256Hash            0      0.00%     43.56% # Type of FU issued
system.switch_cpus.iq.FU_type_0::SimdSha256Hash2            0      0.00%     43.56% # Type of FU issued
system.switch_cpus.iq.FU_type_0::SimdShaSigma2            0      0.00%     43.56% # Type of FU issued
system.switch_cpus.iq.FU_type_0::SimdShaSigma3            0      0.00%     43.56% # Type of FU issued
system.switch_cpus.iq.FU_type_0::SimdPredAlu            0      0.00%     43.56% # Type of FU issued
system.switch_cpus.iq.FU_type_0::MemRead        32698      0.15%     43.71% # Type of FU issued
system.switch_cpus.iq.FU_type_0::MemWrite        10516      0.05%     43.76% # Type of FU issued
system.switch_cpus.iq.FU_type_0::FloatMemRead           89      0.00%     43.76% # Type of FU issued
system.switch_cpus.iq.FU_type_0::FloatMemWrite     12042966     56.24%    100.00% # Type of FU issued
system.switch_cpus.iq.FU_type_0::IprAccess            0      0.00%    100.00% # Type of FU issued
system.switch_cpus.iq.FU_type_0::InstPrefetch            0      0.00%    100.00% # Type of FU issued
system.switch_cpus.iq.FU_type_0::total       21414600                       # Type of FU issued
system.switch_cpus.iq.fp_alu_accesses        12175777                       # Number of floating point alu accesses
system.switch_cpus.iq.fp_inst_queue_reads     24219042                       # Number of floating instruction queue reads
system.switch_cpus.iq.fp_inst_queue_wakeup_accesses     11357987                       # Number of floating instruction queue wakeup accesses
system.switch_cpus.iq.fp_inst_queue_writes     12773026                       # Number of floating instruction queue writes
system.switch_cpus.iq.fu_busy_cnt              150385                       # FU busy when requested
system.switch_cpus.iq.fu_busy_rate           0.007023                       # FU busy rate (busy events/executed inst)
system.switch_cpus.iq.fu_full::No_OpClass            0      0.00%      0.00% # attempts to use FU when none available
system.switch_cpus.iq.fu_full::IntAlu           17678     11.76%     11.76% # attempts to use FU when none available
system.switch_cpus.iq.fu_full::IntMult              0      0.00%     11.76% # attempts to use FU when none available
system.switch_cpus.iq.fu_full::IntDiv               0      0.00%     11.76% # attempts to use FU when none available
system.switch_cpus.iq.fu_full::FloatAdd             0      0.00%     11.76% # attempts to use FU when none available
system.switch_cpus.iq.fu_full::FloatCmp             0      0.00%     11.76% # attempts to use FU when none available
system.switch_cpus.iq.fu_full::FloatCvt             0      0.00%     11.76% # attempts to use FU when none available
system.switch_cpus.iq.fu_full::FloatMult            0      0.00%     11.76% # attempts to use FU when none available
system.switch_cpus.iq.fu_full::FloatMultAcc            0      0.00%     11.76% # attempts to use FU when none available
system.switch_cpus.iq.fu_full::FloatDiv             0      0.00%     11.76% # attempts to use FU when none available
system.switch_cpus.iq.fu_full::FloatMisc            0      0.00%     11.76% # attempts to use FU when none available
system.switch_cpus.iq.fu_full::FloatSqrt            0      0.00%     11.76% # attempts to use FU when none available
system.switch_cpus.iq.fu_full::SimdAdd              0      0.00%     11.76% # attempts to use FU when none available
system.switch_cpus.iq.fu_full::SimdAddAcc            0      0.00%     11.76% # attempts to use FU when none available
system.switch_cpus.iq.fu_full::SimdAlu              0      0.00%     11.76% # attempts to use FU when none available
system.switch_cpus.iq.fu_full::SimdCmp              0      0.00%     11.76% # attempts to use FU when none available
system.switch_cpus.iq.fu_full::SimdCvt              0      0.00%     11.76% # attempts to use FU when none available
system.switch_cpus.iq.fu_full::SimdMisc             0      0.00%     11.76% # attempts to use FU when none available
system.switch_cpus.iq.fu_full::SimdMult             0      0.00%     11.76% # attempts to use FU when none available
system.switch_cpus.iq.fu_full::SimdMultAcc            0      0.00%     11.76% # attempts to use FU when none available
system.switch_cpus.iq.fu_full::SimdShift            0      0.00%     11.76% # attempts to use FU when none available
system.switch_cpus.iq.fu_full::SimdShiftAcc            0      0.00%     11.76% # attempts to use FU when none available
system.switch_cpus.iq.fu_full::SimdDiv              0      0.00%     11.76% # attempts to use FU when none available
system.switch_cpus.iq.fu_full::SimdSqrt             0      0.00%     11.76% # attempts to use FU when none available
system.switch_cpus.iq.fu_full::SimdFloatAdd            0      0.00%     11.76% # attempts to use FU when none available
system.switch_cpus.iq.fu_full::SimdFloatAlu            0      0.00%     11.76% # attempts to use FU when none available
system.switch_cpus.iq.fu_full::SimdFloatCmp            0      0.00%     11.76% # attempts to use FU when none available
system.switch_cpus.iq.fu_full::SimdFloatCvt            0      0.00%     11.76% # attempts to use FU when none available
system.switch_cpus.iq.fu_full::SimdFloatDiv            0      0.00%     11.76% # attempts to use FU when none available
system.switch_cpus.iq.fu_full::SimdFloatMisc            0      0.00%     11.76% # attempts to use FU when none available
system.switch_cpus.iq.fu_full::SimdFloatMult            0      0.00%     11.76% # attempts to use FU when none available
system.switch_cpus.iq.fu_full::SimdFloatMultAcc            0      0.00%     11.76% # attempts to use FU when none available
system.switch_cpus.iq.fu_full::SimdFloatSqrt            0      0.00%     11.76% # attempts to use FU when none available
system.switch_cpus.iq.fu_full::SimdReduceAdd            0      0.00%     11.76% # attempts to use FU when none available
system.switch_cpus.iq.fu_full::SimdReduceAlu            0      0.00%     11.76% # attempts to use FU when none available
system.switch_cpus.iq.fu_full::SimdReduceCmp            0      0.00%     11.76% # attempts to use FU when none available
system.switch_cpus.iq.fu_full::SimdFloatReduceAdd            0      0.00%     11.76% # attempts to use FU when none available
system.switch_cpus.iq.fu_full::SimdFloatReduceCmp            0      0.00%     11.76% # attempts to use FU when none available
system.switch_cpus.iq.fu_full::SimdAes              0      0.00%     11.76% # attempts to use FU when none available
system.switch_cpus.iq.fu_full::SimdAesMix            0      0.00%     11.76% # attempts to use FU when none available
system.switch_cpus.iq.fu_full::SimdSha1Hash            0      0.00%     11.76% # attempts to use FU when none available
system.switch_cpus.iq.fu_full::SimdSha1Hash2            0      0.00%     11.76% # attempts to use FU when none available
system.switch_cpus.iq.fu_full::SimdSha256Hash            0      0.00%     11.76% # attempts to use FU when none available
system.switch_cpus.iq.fu_full::SimdSha256Hash2            0      0.00%     11.76% # attempts to use FU when none available
system.switch_cpus.iq.fu_full::SimdShaSigma2            0      0.00%     11.76% # attempts to use FU when none available
system.switch_cpus.iq.fu_full::SimdShaSigma3            0      0.00%     11.76% # attempts to use FU when none available
system.switch_cpus.iq.fu_full::SimdPredAlu            0      0.00%     11.76% # attempts to use FU when none available
system.switch_cpus.iq.fu_full::MemRead             20      0.01%     11.77% # attempts to use FU when none available
system.switch_cpus.iq.fu_full::MemWrite            46      0.03%     11.80% # attempts to use FU when none available
system.switch_cpus.iq.fu_full::FloatMemRead            3      0.00%     11.80% # attempts to use FU when none available
system.switch_cpus.iq.fu_full::FloatMemWrite       132638     88.20%    100.00% # attempts to use FU when none available
system.switch_cpus.iq.fu_full::IprAccess            0      0.00%    100.00% # attempts to use FU when none available
system.switch_cpus.iq.fu_full::InstPrefetch            0      0.00%    100.00% # attempts to use FU when none available
system.switch_cpus.iq.int_alu_accesses        9388205                       # Number of integer alu accesses
system.switch_cpus.iq.int_inst_queue_reads    274442547                       # Number of integer instruction queue reads
system.switch_cpus.iq.int_inst_queue_wakeup_accesses      9338179                       # Number of integer instruction queue wakeup accesses
system.switch_cpus.iq.int_inst_queue_writes     10186028                       # Number of integer instruction queue writes
system.switch_cpus.iq.iqInstsAdded           21476368                       # Number of instructions added to the IQ (excludes non-spec)
system.switch_cpus.iq.iqInstsIssued          21414600                       # Number of instructions issued
system.switch_cpus.iq.iqSquashedInstsExamined      1482672                       # Number of squashed instructions iterated over during squash; mainly for profiling
system.switch_cpus.iq.iqSquashedInstsIssued         4357                       # Number of squashed instructions issued
system.switch_cpus.iq.iqSquashedOperandsExamined      3026965                       # Number of squashed operands that are examined and possibly removed from graph
system.switch_cpus.iq.issued_per_cycle::samples    255677648                       # Number of insts issued each cycle
system.switch_cpus.iq.issued_per_cycle::mean     0.083756                       # Number of insts issued each cycle
system.switch_cpus.iq.issued_per_cycle::stdev     0.422021                       # Number of insts issued each cycle
system.switch_cpus.iq.issued_per_cycle::underflows            0      0.00%      0.00% # Number of insts issued each cycle
system.switch_cpus.iq.issued_per_cycle::0    240974453     94.25%     94.25% # Number of insts issued each cycle
system.switch_cpus.iq.issued_per_cycle::1     11566471      4.52%     98.77% # Number of insts issued each cycle
system.switch_cpus.iq.issued_per_cycle::2      1219651      0.48%     99.25% # Number of insts issued each cycle
system.switch_cpus.iq.issued_per_cycle::3       734870      0.29%     99.54% # Number of insts issued each cycle
system.switch_cpus.iq.issued_per_cycle::4      1003694      0.39%     99.93% # Number of insts issued each cycle
system.switch_cpus.iq.issued_per_cycle::5        54648      0.02%     99.95% # Number of insts issued each cycle
system.switch_cpus.iq.issued_per_cycle::6        19604      0.01%     99.96% # Number of insts issued each cycle
system.switch_cpus.iq.issued_per_cycle::7        35479      0.01%     99.97% # Number of insts issued each cycle
system.switch_cpus.iq.issued_per_cycle::8        68778      0.03%    100.00% # Number of insts issued each cycle
system.switch_cpus.iq.issued_per_cycle::overflows            0      0.00%    100.00% # Number of insts issued each cycle
system.switch_cpus.iq.issued_per_cycle::min_value            0                       # Number of insts issued each cycle
system.switch_cpus.iq.issued_per_cycle::max_value            8                       # Number of insts issued each cycle
system.switch_cpus.iq.issued_per_cycle::total    255677648                       # Number of insts issued each cycle
system.switch_cpus.iq.rate                   0.083755                       # Inst issue rate
system.switch_cpus.iq.vec_alu_accesses              0                       # Number of vector alu accesses
system.switch_cpus.iq.vec_inst_queue_reads            0                       # Number of vector instruction queue reads
system.switch_cpus.iq.vec_inst_queue_wakeup_accesses            0                       # Number of vector instruction queue wakeup accesses
system.switch_cpus.iq.vec_inst_queue_writes            0                       # Number of vector instruction queue writes
system.switch_cpus.memDep0.conflictingLoads          156                       # Number of conflicting loads.
system.switch_cpus.memDep0.conflictingStores          107                       # Number of conflicting stores.
system.switch_cpus.memDep0.insertedLoads        33982                       # Number of loads inserted to the mem dependence unit.
system.switch_cpus.memDep0.insertedStores     12062303                       # Number of stores inserted to the mem dependence unit.
system.switch_cpus.misc_regfile_reads        15173301                       # number of misc regfile reads
system.switch_cpus.numCycles                255680564                       # number of cpu cycles simulated
system.switch_cpus.numWorkItemsCompleted            0                       # number of work items this cpu completed
system.switch_cpus.numWorkItemsStarted              0                       # number of work items this cpu started
system.switch_cpus.timesIdled                      30                       # Number of times that the entire CPU went into an idle state and unscheduled itself
system.tol2bus.snoop_filter.hit_multi_requests            0                       # Number of requests hitting in the snoop filter with multiple (>1) holders of the requested data.
system.tol2bus.snoop_filter.hit_multi_snoops            0                       # Number of snoops hitting in the snoop filter with multiple (>1) holders of the requested data.
system.tol2bus.snoop_filter.hit_single_requests      1414651                       # Number of requests hitting in the snoop filter with a single holder of the requested data.
system.tol2bus.snoop_filter.hit_single_snoops          844                       # Number of snoops hitting in the snoop filter with a single holder of the requested data.
system.tol2bus.snoop_filter.tot_requests      2829328                       # Total number of requests made to the snoop filter.
system.tol2bus.snoop_filter.tot_snoops            844                       # Total number of snoops made to the snoop filter.
system.clk_domain.clock                          1000                       # Clock period in ticks
system.cpu.branchPred.lookups                       0                       # Number of BP lookups
system.cpu.branchPred.condPredicted                 0                       # Number of conditional branches predicted
system.cpu.branchPred.condIncorrect                 0                       # Number of conditional branches incorrect
system.cpu.branchPred.BTBLookups                    0                       # Number of BTB lookups
system.cpu.branchPred.BTBHits                       0                       # Number of BTB hits
system.cpu.branchPred.BTBHitPct                   nan                       # BTB Hit Percentage
system.cpu.branchPred.RASUsed                       0                       # Number of times the RAS was used to get a target.
system.cpu.branchPred.RASIncorrect                  0                       # Number of incorrect RAS predictions.
system.cpu.branchPred.indirectLookups               0                       # Number of indirect predictor lookups.
system.cpu.branchPred.indirectHits                  0                       # Number of indirect target hits.
system.cpu.branchPred.indirectMisses                0                       # Number of indirect misses.
system.cpu.branchPred.indirectMispredicted            0                       # Number of mispredicted indirect branches.
system.cpu.dcache.demand_hits::.switch_cpus.data      9935506                       # number of demand (read+write) hits
system.cpu.dcache.demand_hits::total          9935506                       # number of demand (read+write) hits
system.cpu.dcache.overall_hits::.switch_cpus.data      9935506                       # number of overall hits
system.cpu.dcache.overall_hits::total         9935506                       # number of overall hits
system.cpu.dcache.demand_misses::.switch_cpus.data      1414847                       # number of demand (read+write) misses
system.cpu.dcache.demand_misses::total        1414847                       # number of demand (read+write) misses
system.cpu.dcache.overall_misses::.switch_cpus.data      1414847                       # number of overall misses
system.cpu.dcache.overall_misses::total       1414847                       # number of overall misses
system.cpu.dcache.demand_miss_latency::.switch_cpus.data 117555026500                       # number of demand (read+write) miss cycles
system.cpu.dcache.demand_miss_latency::total 117555026500                       # number of demand (read+write) miss cycles
system.cpu.dcache.overall_miss_latency::.switch_cpus.data 117555026500                       # number of overall miss cycles
system.cpu.dcache.overall_miss_latency::total 117555026500                       # number of overall miss cycles
system.cpu.dcache.demand_accesses::.switch_cpus.data     11350353                       # number of demand (read+write) accesses
system.cpu.dcache.demand_accesses::total     11350353                       # number of demand (read+write) accesses
system.cpu.dcache.overall_accesses::.switch_cpus.data     11350353                       # number of overall (read+write) accesses
system.cpu.dcache.overall_accesses::total     11350353                       # number of overall (read+write) accesses
system.cpu.dcache.demand_miss_rate::.switch_cpus.data     0.124652                       # miss rate for demand accesses
system.cpu.dcache.demand_miss_rate::total     0.124652                       # miss rate for demand accesses
system.cpu.dcache.overall_miss_rate::.switch_cpus.data     0.124652                       # miss rate for overall accesses
system.cpu.dcache.overall_miss_rate::total     0.124652                       # miss rate for overall accesses
system.cpu.dcache.demand_avg_miss_latency::.switch_cpus.data 83086.741181                       # average overall miss latency
system.cpu.dcache.demand_avg_miss_latency::total 83086.741181                       # average overall miss latency
system.cpu.dcache.overall_avg_miss_latency::.switch_cpus.data 83086.741181                       # average overall miss latency
system.cpu.dcache.overall_avg_miss_latency::total 83086.741181                       # average overall miss latency
system.cpu.dcache.blocked_cycles::no_mshrs           19                       # number of cycles access was blocked
system.cpu.dcache.blocked_cycles::no_targets            0                       # number of cycles access was blocked
system.cpu.dcache.blocked::no_mshrs                 2                       # number of cycles access was blocked
system.cpu.dcache.blocked::no_targets               0                       # number of cycles access was blocked
system.cpu.dcache.avg_blocked_cycles::no_mshrs     9.500000                       # average number of cycles each access was blocked
system.cpu.dcache.avg_blocked_cycles::no_targets          nan                       # average number of cycles each access was blocked
system.cpu.dcache.writebacks::.writebacks      1414545                       # number of writebacks
system.cpu.dcache.writebacks::total           1414545                       # number of writebacks
system.cpu.dcache.demand_mshr_hits::.switch_cpus.data          263                       # number of demand (read+write) MSHR hits
system.cpu.dcache.demand_mshr_hits::total          263                       # number of demand (read+write) MSHR hits
system.cpu.dcache.overall_mshr_hits::.switch_cpus.data          263                       # number of overall MSHR hits
system.cpu.dcache.overall_mshr_hits::total          263                       # number of overall MSHR hits
system.cpu.dcache.demand_mshr_misses::.switch_cpus.data      1414584                       # number of demand (read+write) MSHR misses
system.cpu.dcache.demand_mshr_misses::total      1414584                       # number of demand (read+write) MSHR misses
system.cpu.dcache.overall_mshr_misses::.switch_cpus.data      1414584                       # number of overall MSHR misses
system.cpu.dcache.overall_mshr_misses::total      1414584                       # number of overall MSHR misses
system.cpu.dcache.demand_mshr_miss_latency::.switch_cpus.data 116129121000                       # number of demand (read+write) MSHR miss cycles
system.cpu.dcache.demand_mshr_miss_latency::total 116129121000                       # number of demand (read+write) MSHR miss cycles
system.cpu.dcache.overall_mshr_miss_latency::.switch_cpus.data 116129121000                       # number of overall MSHR miss cycles
system.cpu.dcache.overall_mshr_miss_latency::total 116129121000                       # number of overall MSHR miss cycles
system.cpu.dcache.demand_mshr_miss_rate::.switch_cpus.data     0.124629                       # mshr miss rate for demand accesses
system.cpu.dcache.demand_mshr_miss_rate::total     0.124629                       # mshr miss rate for demand accesses
system.cpu.dcache.overall_mshr_miss_rate::.switch_cpus.data     0.124629                       # mshr miss rate for overall accesses
system.cpu.dcache.overall_mshr_miss_rate::total     0.124629                       # mshr miss rate for overall accesses
system.cpu.dcache.demand_avg_mshr_miss_latency::.switch_cpus.data 82094.185287                       # average overall mshr miss latency
system.cpu.dcache.demand_avg_mshr_miss_latency::total 82094.185287                       # average overall mshr miss latency
system.cpu.dcache.overall_avg_mshr_miss_latency::.switch_cpus.data 82094.185287                       # average overall mshr miss latency
system.cpu.dcache.overall_avg_mshr_miss_latency::total 82094.185287                       # average overall mshr miss latency
system.cpu.dcache.replacements                1414583                       # number of replacements
system.cpu.dcache.ReadReq_hits::.switch_cpus.data        28016                       # number of ReadReq hits
system.cpu.dcache.ReadReq_hits::total           28016                       # number of ReadReq hits
system.cpu.dcache.ReadReq_misses::.switch_cpus.data          371                       # number of ReadReq misses
system.cpu.dcache.ReadReq_misses::total           371                       # number of ReadReq misses
system.cpu.dcache.ReadReq_miss_latency::.switch_cpus.data     15393000                       # number of ReadReq miss cycles
system.cpu.dcache.ReadReq_miss_latency::total     15393000                       # number of ReadReq miss cycles
system.cpu.dcache.ReadReq_accesses::.switch_cpus.data        28387                       # number of ReadReq accesses(hits+misses)
system.cpu.dcache.ReadReq_accesses::total        28387                       # number of ReadReq accesses(hits+misses)
system.cpu.dcache.ReadReq_miss_rate::.switch_cpus.data     0.013069                       # miss rate for ReadReq accesses
system.cpu.dcache.ReadReq_miss_rate::total     0.013069                       # miss rate for ReadReq accesses
system.cpu.dcache.ReadReq_avg_miss_latency::.switch_cpus.data 41490.566038                       # average ReadReq miss latency
system.cpu.dcache.ReadReq_avg_miss_latency::total 41490.566038                       # average ReadReq miss latency
system.cpu.dcache.ReadReq_mshr_hits::.switch_cpus.data          263                       # number of ReadReq MSHR hits
system.cpu.dcache.ReadReq_mshr_hits::total          263                       # number of ReadReq MSHR hits
system.cpu.dcache.ReadReq_mshr_misses::.switch_cpus.data          108                       # number of ReadReq MSHR misses
system.cpu.dcache.ReadReq_mshr_misses::total          108                       # number of ReadReq MSHR misses
system.cpu.dcache.ReadReq_mshr_miss_latency::.switch_cpus.data      3962500                       # number of ReadReq MSHR miss cycles
system.cpu.dcache.ReadReq_mshr_miss_latency::total      3962500                       # number of ReadReq MSHR miss cycles
system.cpu.dcache.ReadReq_mshr_miss_rate::.switch_cpus.data     0.003805                       # mshr miss rate for ReadReq accesses
system.cpu.dcache.ReadReq_mshr_miss_rate::total     0.003805                       # mshr miss rate for ReadReq accesses
system.cpu.dcache.ReadReq_avg_mshr_miss_latency::.switch_cpus.data 36689.814815                       # average ReadReq mshr miss latency
system.cpu.dcache.ReadReq_avg_mshr_miss_latency::total 36689.814815                       # average ReadReq mshr miss latency
system.cpu.dcache.WriteReq_hits::.switch_cpus.data      9907490                       # number of WriteReq hits
system.cpu.dcache.WriteReq_hits::total        9907490                       # number of WriteReq hits
system.cpu.dcache.WriteReq_misses::.switch_cpus.data      1414476                       # number of WriteReq misses
system.cpu.dcache.WriteReq_misses::total      1414476                       # number of WriteReq misses
system.cpu.dcache.WriteReq_miss_latency::.switch_cpus.data 117539633500                       # number of WriteReq miss cycles
system.cpu.dcache.WriteReq_miss_latency::total 117539633500                       # number of WriteReq miss cycles
system.cpu.dcache.WriteReq_accesses::.switch_cpus.data     11321966                       # number of WriteReq accesses(hits+misses)
system.cpu.dcache.WriteReq_accesses::total     11321966                       # number of WriteReq accesses(hits+misses)
system.cpu.dcache.WriteReq_miss_rate::.switch_cpus.data     0.124932                       # miss rate for WriteReq accesses
system.cpu.dcache.WriteReq_miss_rate::total     0.124932                       # miss rate for WriteReq accesses
system.cpu.dcache.WriteReq_avg_miss_latency::.switch_cpus.data 83097.651356                       # average WriteReq miss latency
system.cpu.dcache.WriteReq_avg_miss_latency::total 83097.651356                       # average WriteReq miss latency
system.cpu.dcache.WriteReq_mshr_misses::.switch_cpus.data      1414476                       # number of WriteReq MSHR misses
system.cpu.dcache.WriteReq_mshr_misses::total      1414476                       # number of WriteReq MSHR misses
system.cpu.dcache.WriteReq_mshr_miss_latency::.switch_cpus.data 116125158500                       # number of WriteReq MSHR miss cycles
system.cpu.dcache.WriteReq_mshr_miss_latency::total 116125158500                       # number of WriteReq MSHR miss cycles
system.cpu.dcache.WriteReq_mshr_miss_rate::.switch_cpus.data     0.124932                       # mshr miss rate for WriteReq accesses
system.cpu.dcache.WriteReq_mshr_miss_rate::total     0.124932                       # mshr miss rate for WriteReq accesses
system.cpu.dcache.WriteReq_avg_mshr_miss_latency::.switch_cpus.data 82097.652063                       # average WriteReq mshr miss latency
system.cpu.dcache.WriteReq_avg_mshr_miss_latency::total 82097.652063                       # average WriteReq mshr miss latency
system.cpu.dcache.power_state.pwrStateResidencyTicks::UNDEFINED 128946461500                       # Cumulative time (in ticks) in various power states
system.cpu.dcache.tags.tagsinuse                 1024                       # Cycle average of tags in use
system.cpu.dcache.tags.total_refs            11413620                       # Total number of references to valid blocks.
system.cpu.dcache.tags.sampled_refs           1415607                       # Sample count of references to valid blocks.
system.cpu.dcache.tags.avg_refs              8.062704                       # Average number of references to valid blocks.
system.cpu.dcache.tags.warmup_cycle                 0                       # Cycle when the warmup percentage was hit.
system.cpu.dcache.tags.occ_blocks::.cpu.data     0.797074                       # Average occupied blocks per requestor
system.cpu.dcache.tags.occ_blocks::.switch_cpus.data  1023.202926                       # Average occupied blocks per requestor
system.cpu.dcache.tags.occ_percent::.cpu.data     0.000778                       # Average percentage of cache occupancy
system.cpu.dcache.tags.occ_percent::.switch_cpus.data     0.999222                       # Average percentage of cache occupancy
system.cpu.dcache.tags.occ_percent::total            1                       # Average percentage of cache occupancy
system.cpu.dcache.tags.occ_task_id_blocks::1024         1024                       # Occupied blocks per task id
system.cpu.dcache.tags.age_task_id_blocks_1024::0          111                       # Occupied blocks per task id
system.cpu.dcache.tags.age_task_id_blocks_1024::1          913                       # Occupied blocks per task id
system.cpu.dcache.tags.occ_task_id_percent::1024            1                       # Percentage of cache occupancy per task id
system.cpu.dcache.tags.tag_accesses          24115289                       # Number of tag accesses
system.cpu.dcache.tags.data_accesses         24115289                       # Number of data accesses
system.cpu.dcache.tags.power_state.pwrStateResidencyTicks::UNDEFINED 128946461500                       # Cumulative time (in ticks) in various power states
system.cpu.dtb.rdAccesses                           0                       # TLB accesses on read requests
system.cpu.dtb.wrAccesses                           0                       # TLB accesses on write requests
system.cpu.dtb.rdMisses                             0                       # TLB misses on read requests
system.cpu.dtb.wrMisses                             0                       # TLB misses on write requests
system.cpu.dtb.walker.power_state.pwrStateResidencyTicks::UNDEFINED 128946461500                       # Cumulative time (in ticks) in various power states
system.cpu.dtb_walker_cache.blocked_cycles::no_mshrs            0                       # number of cycles access was blocked
system.cpu.dtb_walker_cache.blocked_cycles::no_targets            0                       # number of cycles access was blocked
system.cpu.dtb_walker_cache.blocked::no_mshrs            0                       # number of cycles access was blocked
system.cpu.dtb_walker_cache.blocked::no_targets            0                       # number of cycles access was blocked
system.cpu.dtb_walker_cache.avg_blocked_cycles::no_mshrs          nan                       # average number of cycles each access was blocked
system.cpu.dtb_walker_cache.avg_blocked_cycles::no_targets          nan                       # average number of cycles each access was blocked
system.cpu.dtb_walker_cache.replacements            0                       # number of replacements
system.cpu.dtb_walker_cache.power_state.pwrStateResidencyTicks::UNDEFINED 128946461500                       # Cumulative time (in ticks) in various power states
system.cpu.dtb_walker_cache.tags.tagsinuse            0                       # Cycle average of tags in use
system.cpu.dtb_walker_cache.tags.total_refs            0                       # Total number of references to valid blocks.
system.cpu.dtb_walker_cache.tags.sampled_refs            0                       # Sample count of references to valid blocks.
system.cpu.dtb_walker_cache.tags.avg_refs          nan                       # Average number of references to valid blocks.
system.cpu.dtb_walker_cache.tags.warmup_cycle            0                       # Cycle when the warmup percentage was hit.
system.cpu.dtb_walker_cache.tags.tag_accesses            0                       # Number of tag accesses
system.cpu.dtb_walker_cache.tags.data_accesses            0                       # Number of data accesses
system.cpu.dtb_walker_cache.tags.power_state.pwrStateResidencyTicks::UNDEFINED 128946461500                       # Cumulative time (in ticks) in various power states
system.cpu.icache.demand_hits::.switch_cpus.inst        39891                       # number of demand (read+write) hits
system.cpu.icache.demand_hits::total            39891                       # number of demand (read+write) hits
system.cpu.icache.overall_hits::.switch_cpus.inst        39891                       # number of overall hits
system.cpu.icache.overall_hits::total           39891                       # number of overall hits
system.cpu.icache.demand_misses::.switch_cpus.inst          198                       # number of demand (read+write) misses
system.cpu.icache.demand_misses::total            198                       # number of demand (read+write) misses
system.cpu.icache.overall_misses::.switch_cpus.inst          198                       # number of overall misses
system.cpu.icache.overall_misses::total           198                       # number of overall misses
system.cpu.icache.demand_miss_latency::.switch_cpus.inst     13693500                       # number of demand (read+write) miss cycles
system.cpu.icache.demand_miss_latency::total     13693500                       # number of demand (read+write) miss cycles
system.cpu.icache.overall_miss_latency::.switch_cpus.inst     13693500                       # number of overall miss cycles
system.cpu.icache.overall_miss_latency::total     13693500                       # number of overall miss cycles
system.cpu.icache.demand_accesses::.switch_cpus.inst        40089                       # number of demand (read+write) accesses
system.cpu.icache.demand_accesses::total        40089                       # number of demand (read+write) accesses
system.cpu.icache.overall_accesses::.switch_cpus.inst        40089                       # number of overall (read+write) accesses
system.cpu.icache.overall_accesses::total        40089                       # number of overall (read+write) accesses
system.cpu.icache.demand_miss_rate::.switch_cpus.inst     0.004939                       # miss rate for demand accesses
system.cpu.icache.demand_miss_rate::total     0.004939                       # miss rate for demand accesses
system.cpu.icache.overall_miss_rate::.switch_cpus.inst     0.004939                       # miss rate for overall accesses
system.cpu.icache.overall_miss_rate::total     0.004939                       # miss rate for overall accesses
system.cpu.icache.demand_avg_miss_latency::.switch_cpus.inst 69159.090909                       # average overall miss latency
system.cpu.icache.demand_avg_miss_latency::total 69159.090909                       # average overall miss latency
system.cpu.icache.overall_avg_miss_latency::.switch_cpus.inst 69159.090909                       # average overall miss latency
system.cpu.icache.overall_avg_miss_latency::total 69159.090909                       # average overall miss latency
system.cpu.icache.blocked_cycles::no_mshrs            0                       # number of cycles access was blocked
system.cpu.icache.blocked_cycles::no_targets            0                       # number of cycles access was blocked
system.cpu.icache.blocked::no_mshrs                 0                       # number of cycles access was blocked
system.cpu.icache.blocked::no_targets               0                       # number of cycles access was blocked
system.cpu.icache.avg_blocked_cycles::no_mshrs          nan                       # average number of cycles each access was blocked
system.cpu.icache.avg_blocked_cycles::no_targets          nan                       # average number of cycles each access was blocked
system.cpu.icache.writebacks::.writebacks           68                       # number of writebacks
system.cpu.icache.writebacks::total                68                       # number of writebacks
system.cpu.icache.demand_mshr_hits::.switch_cpus.inst          105                       # number of demand (read+write) MSHR hits
system.cpu.icache.demand_mshr_hits::total          105                       # number of demand (read+write) MSHR hits
system.cpu.icache.overall_mshr_hits::.switch_cpus.inst          105                       # number of overall MSHR hits
system.cpu.icache.overall_mshr_hits::total          105                       # number of overall MSHR hits
system.cpu.icache.demand_mshr_misses::.switch_cpus.inst           93                       # number of demand (read+write) MSHR misses
system.cpu.icache.demand_mshr_misses::total           93                       # number of demand (read+write) MSHR misses
system.cpu.icache.overall_mshr_misses::.switch_cpus.inst           93                       # number of overall MSHR misses
system.cpu.icache.overall_mshr_misses::total           93                       # number of overall MSHR misses
system.cpu.icache.demand_mshr_miss_latency::.switch_cpus.inst      7103000                       # number of demand (read+write) MSHR miss cycles
system.cpu.icache.demand_mshr_miss_latency::total      7103000                       # number of demand (read+write) MSHR miss cycles
system.cpu.icache.overall_mshr_miss_latency::.switch_cpus.inst      7103000                       # number of overall MSHR miss cycles
system.cpu.icache.overall_mshr_miss_latency::total      7103000                       # number of overall MSHR miss cycles
system.cpu.icache.demand_mshr_miss_rate::.switch_cpus.inst     0.002320                       # mshr miss rate for demand accesses
system.cpu.icache.demand_mshr_miss_rate::total     0.002320                       # mshr miss rate for demand accesses
system.cpu.icache.overall_mshr_miss_rate::.switch_cpus.inst     0.002320                       # mshr miss rate for overall accesses
system.cpu.icache.overall_mshr_miss_rate::total     0.002320                       # mshr miss rate for overall accesses
system.cpu.icache.demand_avg_mshr_miss_latency::.switch_cpus.inst 76376.344086                       # average overall mshr miss latency
system.cpu.icache.demand_avg_mshr_miss_latency::total 76376.344086                       # average overall mshr miss latency
system.cpu.icache.overall_avg_mshr_miss_latency::.switch_cpus.inst 76376.344086                       # average overall mshr miss latency
system.cpu.icache.overall_avg_mshr_miss_latency::total 76376.344086                       # average overall mshr miss latency
system.cpu.icache.replacements                     68                       # number of replacements
system.cpu.icache.ReadReq_hits::.switch_cpus.inst        39891                       # number of ReadReq hits
system.cpu.icache.ReadReq_hits::total           39891                       # number of ReadReq hits
system.cpu.icache.ReadReq_misses::.switch_cpus.inst          198                       # number of ReadReq misses
system.cpu.icache.ReadReq_misses::total           198                       # number of ReadReq misses
system.cpu.icache.ReadReq_miss_latency::.switch_cpus.inst     13693500                       # number of ReadReq miss cycles
system.cpu.icache.ReadReq_miss_latency::total     13693500                       # number of ReadReq miss cycles
system.cpu.icache.ReadReq_accesses::.switch_cpus.inst        40089                       # number of ReadReq accesses(hits+misses)
system.cpu.icache.ReadReq_accesses::total        40089                       # number of ReadReq accesses(hits+misses)
system.cpu.icache.ReadReq_miss_rate::.switch_cpus.inst     0.004939                       # miss rate for ReadReq accesses
system.cpu.icache.ReadReq_miss_rate::total     0.004939                       # miss rate for ReadReq accesses
system.cpu.icache.ReadReq_avg_miss_latency::.switch_cpus.inst 69159.090909                       # average ReadReq miss latency
system.cpu.icache.ReadReq_avg_miss_latency::total 69159.090909                       # average ReadReq miss latency
system.cpu.icache.ReadReq_mshr_hits::.switch_cpus.inst          105                       # number of ReadReq MSHR hits
system.cpu.icache.ReadReq_mshr_hits::total          105                       # number of ReadReq MSHR hits
system.cpu.icache.ReadReq_mshr_misses::.switch_cpus.inst           93                       # number of ReadReq MSHR misses
system.cpu.icache.ReadReq_mshr_misses::total           93                       # number of ReadReq MSHR misses
system.cpu.icache.ReadReq_mshr_miss_latency::.switch_cpus.inst      7103000                       # number of ReadReq MSHR miss cycles
system.cpu.icache.ReadReq_mshr_miss_latency::total      7103000                       # number of ReadReq MSHR miss cycles
system.cpu.icache.ReadReq_mshr_miss_rate::.switch_cpus.inst     0.002320                       # mshr miss rate for ReadReq accesses
system.cpu.icache.ReadReq_mshr_miss_rate::total     0.002320                       # mshr miss rate for ReadReq accesses
system.cpu.icache.ReadReq_avg_mshr_miss_latency::.switch_cpus.inst 76376.344086                       # average ReadReq mshr miss latency
system.cpu.icache.ReadReq_avg_mshr_miss_latency::total 76376.344086                       # average ReadReq mshr miss latency
system.cpu.icache.power_state.pwrStateResidencyTicks::UNDEFINED 128946461500                       # Cumulative time (in ticks) in various power states
system.cpu.icache.tags.tagsinuse           840.986278                       # Cycle average of tags in use
system.cpu.icache.tags.total_refs             1390348                       # Total number of references to valid blocks.
system.cpu.icache.tags.sampled_refs               909                       # Sample count of references to valid blocks.
system.cpu.icache.tags.avg_refs           1529.535754                       # Average number of references to valid blocks.
system.cpu.icache.tags.warmup_cycle                 0                       # Cycle when the warmup percentage was hit.
system.cpu.icache.tags.occ_blocks::.cpu.inst   748.031308                       # Average occupied blocks per requestor
system.cpu.icache.tags.occ_blocks::.switch_cpus.inst    92.954970                       # Average occupied blocks per requestor
system.cpu.icache.tags.occ_percent::.cpu.inst     0.730499                       # Average percentage of cache occupancy
system.cpu.icache.tags.occ_percent::.switch_cpus.inst     0.090776                       # Average percentage of cache occupancy
system.cpu.icache.tags.occ_percent::total     0.821276                       # Average percentage of cache occupancy
system.cpu.icache.tags.occ_task_id_blocks::1024          841                       # Occupied blocks per task id
system.cpu.icache.tags.age_task_id_blocks_1024::4          841                       # Occupied blocks per task id
system.cpu.icache.tags.occ_task_id_percent::1024     0.821289                       # Percentage of cache occupancy per task id
system.cpu.icache.tags.tag_accesses             80271                       # Number of tag accesses
system.cpu.icache.tags.data_accesses            80271                       # Number of data accesses
system.cpu.icache.tags.power_state.pwrStateResidencyTicks::UNDEFINED 128946461500                       # Cumulative time (in ticks) in various power states
system.cpu.interrupts.clk_domain.clock           8000                       # Clock period in ticks
system.cpu.itb.rdAccesses                           0                       # TLB accesses on read requests
system.cpu.itb.wrAccesses                           0                       # TLB accesses on write requests
system.cpu.itb.rdMisses                             0                       # TLB misses on read requests
system.cpu.itb.wrMisses                             0                       # TLB misses on write requests
system.cpu.itb.walker.power_state.pwrStateResidencyTicks::UNDEFINED 128946461500                       # Cumulative time (in ticks) in various power states
system.cpu.itb_walker_cache.blocked_cycles::no_mshrs            0                       # number of cycles access was blocked
system.cpu.itb_walker_cache.blocked_cycles::no_targets            0                       # number of cycles access was blocked
system.cpu.itb_walker_cache.blocked::no_mshrs            0                       # number of cycles access was blocked
system.cpu.itb_walker_cache.blocked::no_targets            0                       # number of cycles access was blocked
system.cpu.itb_walker_cache.avg_blocked_cycles::no_mshrs          nan                       # average number of cycles each access was blocked
system.cpu.itb_walker_cache.avg_blocked_cycles::no_targets          nan                       # average number of cycles each access was blocked
system.cpu.itb_walker_cache.replacements            0                       # number of replacements
system.cpu.itb_walker_cache.power_state.pwrStateResidencyTicks::UNDEFINED 128946461500                       # Cumulative time (in ticks) in various power states
system.cpu.itb_walker_cache.tags.tagsinuse            0                       # Cycle average of tags in use
system.cpu.itb_walker_cache.tags.total_refs            0                       # Total number of references to valid blocks.
system.cpu.itb_walker_cache.tags.sampled_refs            0                       # Sample count of references to valid blocks.
system.cpu.itb_walker_cache.tags.avg_refs          nan                       # Average number of references to valid blocks.
system.cpu.itb_walker_cache.tags.warmup_cycle            0                       # Cycle when the warmup percentage was hit.
system.cpu.itb_walker_cache.tags.tag_accesses            0                       # Number of tag accesses
system.cpu.itb_walker_cache.tags.data_accesses            0                       # Number of data accesses
system.cpu.itb_walker_cache.tags.power_state.pwrStateResidencyTicks::UNDEFINED 128946461500                       # Cumulative time (in ticks) in various power states
system.cpu.power_state.pwrStateResidencyTicks::OFF 127840282000                       # Cumulative time (in ticks) in various power states
system.cpu.thread_0.numInsts                        0                       # Number of Instructions committed
system.cpu.thread_0.numOps                          0                       # Number of Ops committed
system.cpu.thread_0.numMemRefs                      0                       # Number of Memory References
system.cpu_clk_domain.clock                       500                       # Clock period in ticks
system.cpu_voltage_domain.voltage                   1                       # Voltage in Volts
system.l2.demand_hits::.switch_cpus.inst            1                       # number of demand (read+write) hits
system.l2.demand_hits::.switch_cpus.data           78                       # number of demand (read+write) hits
system.l2.demand_hits::total                       79                       # number of demand (read+write) hits
system.l2.overall_hits::.switch_cpus.inst            1                       # number of overall hits
system.l2.overall_hits::.switch_cpus.data           78                       # number of overall hits
system.l2.overall_hits::total                      79                       # number of overall hits
system.l2.demand_misses::.switch_cpus.inst           92                       # number of demand (read+write) misses
system.l2.demand_misses::.switch_cpus.data      1414506                       # number of demand (read+write) misses
system.l2.demand_misses::total                1414598                       # number of demand (read+write) misses
system.l2.overall_misses::.switch_cpus.inst           92                       # number of overall misses
system.l2.overall_misses::.switch_cpus.data      1414506                       # number of overall misses
system.l2.overall_misses::total               1414598                       # number of overall misses
system.l2.demand_miss_latency::.switch_cpus.inst      6951000                       # number of demand (read+write) miss cycles
system.l2.demand_miss_latency::.switch_cpus.data 114006330500                       # number of demand (read+write) miss cycles
system.l2.demand_miss_latency::total     114013281500                       # number of demand (read+write) miss cycles
system.l2.overall_miss_latency::.switch_cpus.inst      6951000                       # number of overall miss cycles
system.l2.overall_miss_latency::.switch_cpus.data 114006330500                       # number of overall miss cycles
system.l2.overall_miss_latency::total    114013281500                       # number of overall miss cycles
system.l2.demand_accesses::.switch_cpus.inst           93                       # number of demand (read+write) accesses
system.l2.demand_accesses::.switch_cpus.data      1414584                       # number of demand (read+write) accesses
system.l2.demand_accesses::total              1414677                       # number of demand (read+write) accesses
system.l2.overall_accesses::.switch_cpus.inst           93                       # number of overall (read+write) accesses
system.l2.overall_accesses::.switch_cpus.data      1414584                       # number of overall (read+write) accesses
system.l2.overall_accesses::total             1414677                       # number of overall (read+write) accesses
system.l2.demand_miss_rate::.switch_cpus.inst     0.989247                       # miss rate for demand accesses
system.l2.demand_miss_rate::.switch_cpus.data     0.999945                       # miss rate for demand accesses
system.l2.demand_miss_rate::total            0.999944                       # miss rate for demand accesses
system.l2.overall_miss_rate::.switch_cpus.inst     0.989247                       # miss rate for overall accesses
system.l2.overall_miss_rate::.switch_cpus.data     0.999945                       # miss rate for overall accesses
system.l2.overall_miss_rate::total           0.999944                       # miss rate for overall accesses
system.l2.demand_avg_miss_latency::.switch_cpus.inst 75554.347826                       # average overall miss latency
system.l2.demand_avg_miss_latency::.switch_cpus.data 80597.982971                       # average overall miss latency
system.l2.demand_avg_miss_latency::total 80597.654952                       # average overall miss latency
system.l2.overall_avg_miss_latency::.switch_cpus.inst 75554.347826                       # average overall miss latency
system.l2.overall_avg_miss_latency::.switch_cpus.data 80597.982971                       # average overall miss latency
system.l2.overall_avg_miss_latency::total 80597.654952                       # average overall miss latency
system.l2.blocked_cycles::no_mshrs                  0                       # number of cycles access was blocked
system.l2.blocked_cycles::no_targets                0                       # number of cycles access was blocked
system.l2.blocked::no_mshrs                         0                       # number of cycles access was blocked
system.l2.blocked::no_targets                       0                       # number of cycles access was blocked
system.l2.avg_blocked_cycles::no_mshrs            nan                       # average number of cycles each access was blocked
system.l2.avg_blocked_cycles::no_targets          nan                       # average number of cycles each access was blocked
system.l2.writebacks::.writebacks             1408064                       # number of writebacks
system.l2.writebacks::total                   1408064                       # number of writebacks
system.l2.demand_mshr_misses::.switch_cpus.inst           92                       # number of demand (read+write) MSHR misses
system.l2.demand_mshr_misses::.switch_cpus.data      1414506                       # number of demand (read+write) MSHR misses
system.l2.demand_mshr_misses::total           1414598                       # number of demand (read+write) MSHR misses
system.l2.overall_mshr_misses::.switch_cpus.inst           92                       # number of overall MSHR misses
system.l2.overall_mshr_misses::.switch_cpus.data      1414506                       # number of overall MSHR misses
system.l2.overall_mshr_misses::total          1414598                       # number of overall MSHR misses
system.l2.demand_mshr_miss_latency::.switch_cpus.inst      6031000                       # number of demand (read+write) MSHR miss cycles
system.l2.demand_mshr_miss_latency::.switch_cpus.data  99861280500                       # number of demand (read+write) MSHR miss cycles
system.l2.demand_mshr_miss_latency::total  99867311500                       # number of demand (read+write) MSHR miss cycles
system.l2.overall_mshr_miss_latency::.switch_cpus.inst      6031000                       # number of overall MSHR miss cycles
system.l2.overall_mshr_miss_latency::.switch_cpus.data  99861280500                       # number of overall MSHR miss cycles
system.l2.overall_mshr_miss_latency::total  99867311500                       # number of overall MSHR miss cycles
system.l2.demand_mshr_miss_rate::.switch_cpus.inst     0.989247                       # mshr miss rate for demand accesses
system.l2.demand_mshr_miss_rate::.switch_cpus.data     0.999945                       # mshr miss rate for demand accesses
system.l2.demand_mshr_miss_rate::total       0.999944                       # mshr miss rate for demand accesses
system.l2.overall_mshr_miss_rate::.switch_cpus.inst     0.989247                       # mshr miss rate for overall accesses
system.l2.overall_mshr_miss_rate::.switch_cpus.data     0.999945                       # mshr miss rate for overall accesses
system.l2.overall_mshr_miss_rate::total      0.999944                       # mshr miss rate for overall accesses
system.l2.demand_avg_mshr_miss_latency::.switch_cpus.inst 65554.347826                       # average overall mshr miss latency
system.l2.demand_avg_mshr_miss_latency::.switch_cpus.data 70597.990040                       # average overall mshr miss latency
system.l2.demand_avg_mshr_miss_latency::total 70597.662021                       # average overall mshr miss latency
system.l2.overall_avg_mshr_miss_latency::.switch_cpus.inst 65554.347826                       # average overall mshr miss latency
system.l2.overall_avg_mshr_miss_latency::.switch_cpus.data 70597.990040                       # average overall mshr miss latency
system.l2.overall_avg_mshr_miss_latency::total 70597.662021                       # average overall mshr miss latency
system.l2.replacements                        1411263                       # number of replacements
system.l2.WritebackDirty_hits::.writebacks      1414545                       # number of WritebackDirty hits
system.l2.WritebackDirty_hits::total          1414545                       # number of WritebackDirty hits
system.l2.WritebackDirty_accesses::.writebacks      1414545                       # number of WritebackDirty accesses(hits+misses)
system.l2.WritebackDirty_accesses::total      1414545                       # number of WritebackDirty accesses(hits+misses)
system.l2.WritebackClean_hits::.writebacks           68                       # number of WritebackClean hits
system.l2.WritebackClean_hits::total               68                       # number of WritebackClean hits
system.l2.WritebackClean_accesses::.writebacks           68                       # number of WritebackClean accesses(hits+misses)
system.l2.WritebackClean_accesses::total           68                       # number of WritebackClean accesses(hits+misses)
system.l2.ReadExReq_hits::.switch_cpus.data           10                       # number of ReadExReq hits
system.l2.ReadExReq_hits::total                    10                       # number of ReadExReq hits
system.l2.ReadExReq_misses::.switch_cpus.data      1414466                       # number of ReadExReq misses
system.l2.ReadExReq_misses::total             1414466                       # number of ReadExReq misses
system.l2.ReadExReq_miss_latency::.switch_cpus.data 114003255000                       # number of ReadExReq miss cycles
system.l2.ReadExReq_miss_latency::total  114003255000                       # number of ReadExReq miss cycles
system.l2.ReadExReq_accesses::.switch_cpus.data      1414476                       # number of ReadExReq accesses(hits+misses)
system.l2.ReadExReq_accesses::total           1414476                       # number of ReadExReq accesses(hits+misses)
system.l2.ReadExReq_miss_rate::.switch_cpus.data     0.999993                       # miss rate for ReadExReq accesses
system.l2.ReadExReq_miss_rate::total         0.999993                       # miss rate for ReadExReq accesses
system.l2.ReadExReq_avg_miss_latency::.switch_cpus.data 80598.087900                       # average ReadExReq miss latency
system.l2.ReadExReq_avg_miss_latency::total 80598.087900                       # average ReadExReq miss latency
system.l2.ReadExReq_mshr_misses::.switch_cpus.data      1414466                       # number of ReadExReq MSHR misses
system.l2.ReadExReq_mshr_misses::total        1414466                       # number of ReadExReq MSHR misses
system.l2.ReadExReq_mshr_miss_latency::.switch_cpus.data  99858605000                       # number of ReadExReq MSHR miss cycles
system.l2.ReadExReq_mshr_miss_latency::total  99858605000                       # number of ReadExReq MSHR miss cycles
system.l2.ReadExReq_mshr_miss_rate::.switch_cpus.data     0.999993                       # mshr miss rate for ReadExReq accesses
system.l2.ReadExReq_mshr_miss_rate::total     0.999993                       # mshr miss rate for ReadExReq accesses
system.l2.ReadExReq_avg_mshr_miss_latency::.switch_cpus.data 70598.094970                       # average ReadExReq mshr miss latency
system.l2.ReadExReq_avg_mshr_miss_latency::total 70598.094970                       # average ReadExReq mshr miss latency
system.l2.ReadCleanReq_hits::.switch_cpus.inst            1                       # number of ReadCleanReq hits
system.l2.ReadCleanReq_hits::total                  1                       # number of ReadCleanReq hits
system.l2.ReadCleanReq_misses::.switch_cpus.inst           92                       # number of ReadCleanReq misses
system.l2.ReadCleanReq_misses::total               92                       # number of ReadCleanReq misses
system.l2.ReadCleanReq_miss_latency::.switch_cpus.inst      6951000                       # number of ReadCleanReq miss cycles
system.l2.ReadCleanReq_miss_latency::total      6951000                       # number of ReadCleanReq miss cycles
system.l2.ReadCleanReq_accesses::.switch_cpus.inst           93                       # number of ReadCleanReq accesses(hits+misses)
system.l2.ReadCleanReq_accesses::total             93                       # number of ReadCleanReq accesses(hits+misses)
system.l2.ReadCleanReq_miss_rate::.switch_cpus.inst     0.989247                       # miss rate for ReadCleanReq accesses
system.l2.ReadCleanReq_miss_rate::total      0.989247                       # miss rate for ReadCleanReq accesses
system.l2.ReadCleanReq_avg_miss_latency::.switch_cpus.inst 75554.347826                       # average ReadCleanReq miss latency
system.l2.ReadCleanReq_avg_miss_latency::total 75554.347826                       # average ReadCleanReq miss latency
system.l2.ReadCleanReq_mshr_misses::.switch_cpus.inst           92                       # number of ReadCleanReq MSHR misses
system.l2.ReadCleanReq_mshr_misses::total           92                       # number of ReadCleanReq MSHR misses
system.l2.ReadCleanReq_mshr_miss_latency::.switch_cpus.inst      6031000                       # number of ReadCleanReq MSHR miss cycles
system.l2.ReadCleanReq_mshr_miss_latency::total      6031000                       # number of ReadCleanReq MSHR miss cycles
[...]
system.switch_cpus.commit.committedInstType_0::FloatMult            0      0.00%     43.31% # Class of committed instruction
system.switch_cpus.commit.committedInstType_0::FloatMultAcc            0      0.00%     43.31% # Class of committed instruction
system.switch_cpus.commit.committedInstType_0::FloatDiv            0      0.00%     43.31% # Class of committed instruction
system.switch_cpus.commit.committedInstType_0::FloatMisc            0      0.00%     43.31% # Class of committed instruction
system.switch_cpus.commit.committedInstType_0::FloatSqrt            0      0.00%     43.31% # Class of committed instruction
system.switch_cpus.commit.committedInstType_0::SimdAdd            0      0.00%     43.31% # Class of committed instruction
system.switch_cpus.commit.committedInstType_0::SimdAddAcc            0      0.00%     43.31% # Class of committed instruction
system.switch_cpus.commit.committedInstType_0::SimdAlu            4      0.00%     43.31% # Class of committed instruction
system.switch_cpus.commit.committedInstType_0::SimdCmp            0      0.00%     43.31% # Class of committed instruction
system.switch_cpus.commit.committedInstType_0::SimdCvt            0      0.00%     43.31% # Class of committed instruction
system.switch_cpus.commit.committedInstType_0::SimdMisc            7      0.00%     43.31% # Class of committed instruction
system.switch_cpus.commit.committedInstType_0::SimdMult            0      0.00%     43.31% # Class of committed instruction
system.switch_cpus.commit.committedInstType_0::SimdMultAcc            0      0.00%     43.31% # Class of committed instruction
system.switch_cpus.commit.committedInstType_0::SimdShift            0      0.00%     43.31% # Class of committed instruction
system.switch_cpus.commit.committedInstType_0::SimdShiftAcc            0      0.00%     43.31% # Class of committed instruction
system.switch_cpus.commit.committedInstType_0::SimdDiv            0      0.00%     43.31% # Class of committed instruction
system.switch_cpus.commit.committedInstType_0::SimdSqrt            0      0.00%     43.31% # Class of committed instruction
system.switch_cpus.commit.committedInstType_0::SimdFloatAdd            0      0.00%     43.31% # Class of committed instruction
system.switch_cpus.commit.committedInstType_0::SimdFloatAlu            0      0.00%     43.31% # Class of committed instruction
system.switch_cpus.commit.committedInstType_0::SimdFloatCmp            0      0.00%     43.31% # Class of committed instruction
system.switch_cpus.commit.committedInstType_0::SimdFloatCvt            0      0.00%     43.31% # Class of committed instruction
system.switch_cpus.commit.committedInstType_0::SimdFloatDiv            0      0.00%     43.31% # Class of committed instruction
system.switch_cpus.commit.committedInstType_0::SimdFloatMisc            0      0.00%     43.31% # Class of committed instruction
system.switch_cpus.commit.committedInstType_0::SimdFloatMult            0      0.00%     43.31% # Class of committed instruction
system.switch_cpus.commit.committedInstType_0::SimdFloatMultAcc            0      0.00%     43.31% # Class of committed instruction
system.switch_cpus.commit.committedInstType_0::SimdFloatSqrt            0      0.00%     43.31% # Class of committed instruction
system.switch_cpus.commit.committedInstType_0::SimdReduceAdd            0      0.00%     43.31% # Class of committed instruction
system.switch_cpus.commit.committedInstType_0::SimdReduceAlu            0      0.00%     43.31% # Class of committed instruction
system.switch_cpus.commit.committedInstType_0::SimdReduceCmp            0      0.00%     43.31% # Class of committed instruction
system.switch_cpus.commit.committedInstType_0::SimdFloatReduceAdd            0      0.00%     43.31% # Class of committed instruction
system.switch_cpus.commit.committedInstType_0::SimdFloatReduceCmp            0      0.00%     43.31% # Class of committed instruction
system.switch_cpus.commit.committedInstType_0::SimdAes            0      0.00%     43.31% # Class of committed instruction
system.switch_cpus.commit.committedInstType_0::SimdAesMix            0      0.00%     43.31% # Class of committed instruction
system.switch_cpus.commit.committedInstType_0::SimdSha1Hash            0      0.00%     43.31% # Class of committed instruction
system.switch_cpus.commit.committedInstType_0::SimdSha1Hash2            0      0.00%     43.31% # Class of committed instruction
system.switch_cpus.commit.committedInstType_0::SimdSha256Hash            0      0.00%     43.31% # Class of committed instruction
system.switch_cpus.commit.committedInstType_0::SimdSha256Hash2            0      0.00%     43.31% # Class of committed instruction
system.switch_cpus.commit.committedInstType_0::SimdShaSigma2            0      0.00%     43.31% # Class of committed instruction
system.switch_cpus.commit.committedInstType_0::SimdShaSigma3            0      0.00%     43.31% # Class of committed instruction
system.switch_cpus.commit.committedInstType_0::SimdPredAlu            0      0.00%     43.31% # Class of committed instruction
system.switch_cpus.commit.committedInstType_0::MemRead        12548      0.06%     43.37% # Class of committed instruction
system.switch_cpus.commit.committedInstType_0::MemWrite         8454      0.04%     43.41% # Class of committed instruction
system.switch_cpus.commit.committedInstType_0::FloatMemRead           38      0.00%     43.41% # Class of committed instruction
system.switch_cpus.commit.committedInstType_0::FloatMemWrite     11313538     56.59%    100.00% # Class of committed instruction
system.switch_cpus.commit.committedInstType_0::IprAccess            0      0.00%    100.00% # Class of committed instruction
system.switch_cpus.commit.committedInstType_0::InstPrefetch            0      0.00%    100.00% # Class of committed instruction
system.switch_cpus.commit.committedInstType_0::total     19993690                       # Class of committed instruction
system.switch_cpus.commit.commitEligibleSamples        97658                       # number cycles where commit BW limit reached
system.switch_cpus.decode.idleCycles           900664                       # Number of cycles decode is idle
system.switch_cpus.decode.blockedCycles     252019949                       # Number of cycles decode is blocked
system.switch_cpus.decode.runCycles            221849                       # Number of cycles decode is running
system.switch_cpus.decode.unblockCycles       2505290                       # Number of cycles decode is unblocking
system.switch_cpus.decode.squashCycles          29893                       # Number of cycles decode is squashing
system.switch_cpus.decode.branchResolved      1529865                       # Number of times decode resolved a  branch
system.switch_cpus.decode.branchMispred            66                       # Number of times decode detected a branch misprediction
system.switch_cpus.decode.decodedInsts       21710348                       # Number of instructions handled by decode
system.switch_cpus.decode.squashedInsts           251                       # Number of squashed instructions handled by decode
system.switch_cpus.dtb.rdAccesses               28666                       # TLB accesses on read requests
system.switch_cpus.dtb.wrAccesses            12052156                       # TLB accesses on write requests
system.switch_cpus.dtb.rdMisses                    10                       # TLB misses on read requests
system.switch_cpus.dtb.wrMisses                707095                       # TLB misses on write requests
system.switch_cpus.dtb.walker.power_state.pwrStateResidencyTicks::UNDEFINED 128946461500                       # Cumulative time (in ticks) in various power states
system.switch_cpus.fetch.icacheStallCycles        49980                       # Number of cycles fetch is stalled on an Icache miss
system.switch_cpus.fetch.insts               11422686                       # Number of instructions fetch has processed
system.switch_cpus.fetch.branches             1639633                       # Number of branches that fetch encountered
system.switch_cpus.fetch.predictedBranches      1598103                       # Number of branches that fetch has predicted taken
system.switch_cpus.fetch.cycles             255597715                       # Number of cycles fetch has run and was not squashing or blocked
system.switch_cpus.fetch.squashCycles           59906                       # Number of cycles fetch has spent squashing
system.switch_cpus.fetch.cacheLines             40089                       # Number of cache lines fetched
system.switch_cpus.fetch.icacheSquashes          2209                       # Number of outstanding Icache misses that were squashed
system.switch_cpus.fetch.nisnDist::samples    255677648                       # Number of instructions fetched each cycle (Total)
system.switch_cpus.fetch.nisnDist::mean      0.089254                       # Number of instructions fetched each cycle (Total)
system.switch_cpus.fetch.nisnDist::stdev     0.764981                       # Number of instructions fetched each cycle (Total)
system.switch_cpus.fetch.nisnDist::underflows            0      0.00%      0.00% # Number of instructions fetched each cycle (Total)
system.switch_cpus.fetch.nisnDist::0        251699830     98.44%     98.44% # Number of instructions fetched each cycle (Total)
system.switch_cpus.fetch.nisnDist::1             2593      0.00%     98.45% # Number of instructions fetched each cycle (Total)
system.switch_cpus.fetch.nisnDist::2           711998      0.28%     98.72% # Number of instructions fetched each cycle (Total)
system.switch_cpus.fetch.nisnDist::3             4168      0.00%     98.73% # Number of instructions fetched each cycle (Total)
system.switch_cpus.fetch.nisnDist::4           731024      0.29%     99.01% # Number of instructions fetched each cycle (Total)
system.switch_cpus.fetch.nisnDist::5             7872      0.00%     99.01% # Number of instructions fetched each cycle (Total)
system.switch_cpus.fetch.nisnDist::6           869550      0.34%     99.35% # Number of instructions fetched each cycle (Total)
system.switch_cpus.fetch.nisnDist::7             4395      0.00%     99.36% # Number of instructions fetched each cycle (Total)
system.switch_cpus.fetch.nisnDist::8          1646218      0.64%    100.00% # Number of instructions fetched each cycle (Total)
system.switch_cpus.fetch.nisnDist::overflows            0      0.00%    100.00% # Number of instructions fetched each cycle (Total)
system.switch_cpus.fetch.nisnDist::min_value            0                       # Number of instructions fetched each cycle (Total)
system.switch_cpus.fetch.nisnDist::max_value            8                       # Number of instructions fetched each cycle (Total)
system.switch_cpus.fetch.nisnDist::total    255677648                       # Number of instructions fetched each cycle (Total)
system.switch_cpus.fetch.branchRate          0.006413                       # Number of branch fetches per cycle
system.switch_cpus.fetch.rate                0.044676                       # Number of inst fetches per cycle
system.switch_cpus.itb.rdAccesses                   0                       # TLB accesses on read requests
system.switch_cpus.itb.wrAccesses               40089                       # TLB accesses on write requests
system.switch_cpus.itb.rdMisses                     0                       # TLB misses on read requests
system.switch_cpus.itb.wrMisses                    10                       # TLB misses on write requests
system.switch_cpus.itb.walker.power_state.pwrStateResidencyTicks::UNDEFINED 128946461500                       # Cumulative time (in ticks) in various power states
system.switch_cpus.lsq0.forwLoads                 277                       # Number of loads that had data forwarded from stores
system.switch_cpus.lsq0.squashedLoads           21396                       # Number of loads squashed
system.switch_cpus.lsq0.ignoredResponses            5                       # Number of memory responses ignored because the instruction is squashed
system.switch_cpus.lsq0.memOrderViolation           14                       # Number of memory ordering violations
system.switch_cpus.lsq0.squashedStores         740310                       # Number of stores squashed
system.switch_cpus.lsq0.rescheduledLoads            0                       # Number of loads that were rescheduled
system.switch_cpus.lsq0.blockedByCache              2                       # Number of times an access to memory failed due to the cache being blocked
system.switch_cpus.power_state.pwrStateResidencyTicks::OFF 128946461500                       # Cumulative time (in ticks) in various power states
system.switch_cpus.rename.squashCycles          29893                       # Number of cycles rename is squashing
system.switch_cpus.rename.idleCycles          1746514                       # Number of cycles rename is idle
system.switch_cpus.rename.blockCycles       119242557                       # Number of cycles rename is blocking
system.switch_cpus.rename.serializeStallCycles            0                       # count of cycles rename stalledfor serializing inst
system.switch_cpus.rename.runCycles           1858605                       # Number of cycles rename is running
system.switch_cpus.rename.unblockCycles     132800076                       # Number of cycles rename is unblocking
system.switch_cpus.rename.renamedInsts       21560261                       # Number of instructions processed by rename
system.switch_cpus.rename.ROBFullEvents            99                       # Number of times rename has blocked due to ROB full
system.switch_cpus.rename.IQFullEvents            878                       # Number of times rename has blocked due to IQ full
system.switch_cpus.rename.SQFullEvents      132798112                       # Number of times rename has blocked due to SQ full
system.switch_cpus.rename.renamedOperands     14194530                       # Number of destination operands rename has renamed
system.switch_cpus.rename.lookups            68881174                       # Number of register rename lookups that rename has made
system.switch_cpus.rename.intLookups         33730383                       # Number of integer rename lookups
system.switch_cpus.rename.fpLookups          12043385                       # Number of floating rename lookups
system.switch_cpus.rename.committedMaps      12982492                       # Number of HB maps that are committed
system.switch_cpus.rename.undoneMaps          1212029                       # Number of HB maps that are undone due to squashing
system.switch_cpus.rename.serializing               0                       # count of serializing insts renamed
system.switch_cpus.rename.tempSerializing            0                       # count of temporary serializing insts renamed
system.switch_cpus.rename.skidInsts          15677388                       # count of insts added to the skid buffer
system.switch_cpus.rob.reads                276517068                       # The number of ROB reads
system.switch_cpus.rob.writes                43006051                       # The number of ROB writes
system.switch_cpus.thread_0.numInsts         10000000                       # Number of Instructions committed
system.switch_cpus.thread_0.numOps           19993690                       # Number of Ops committed
system.switch_cpus.thread_0.numMemRefs              0                       # Number of Memory References
system.tol2bus.trans_dist::ReadResp               201                       # Transaction distribution
system.tol2bus.trans_dist::WritebackDirty      2822609                       # Transaction distribution
system.tol2bus.trans_dist::WritebackClean           68                       # Transaction distribution
system.tol2bus.trans_dist::CleanEvict            3237                       # Transaction distribution
system.tol2bus.trans_dist::ReadExReq          1414476                       # Transaction distribution
system.tol2bus.trans_dist::ReadExResp         1414475                       # Transaction distribution
system.tol2bus.trans_dist::ReadCleanReq            93                       # Transaction distribution
system.tol2bus.trans_dist::ReadSharedReq          108                       # Transaction distribution
system.tol2bus.pkt_count_system.cpu.icache.mem_side_port::system.l2.cpu_side_port          254                       # Packet count per connected requestor and responder (bytes)
system.tol2bus.pkt_count_system.cpu.dcache.mem_side_port::system.l2.cpu_side_port      4243750                       # Packet count per connected requestor and responder (bytes)
system.tol2bus.pkt_count::total               4244004                       # Packet count per connected requestor and responder (bytes)
system.tol2bus.pkt_size_system.cpu.icache.mem_side_port::system.l2.cpu_side_port        10304                       # Cumulative packet size per connected requestor and responder (bytes)
system.tol2bus.pkt_size_system.cpu.dcache.mem_side_port::system.l2.cpu_side_port    181064192                       # Cumulative packet size per connected requestor and responder (bytes)
system.tol2bus.pkt_size::total              181074496                       # Cumulative packet size per connected requestor and responder (bytes)
system.tol2bus.snoops                         1411263                       # Total snoops (count)
system.tol2bus.snoopTraffic                  90116096                       # Total snoop traffic (bytes)
system.tol2bus.snoop_fanout::samples          2825940                       # Request fanout histogram
system.tol2bus.snoop_fanout::mean            0.000299                       # Request fanout histogram
system.tol2bus.snoop_fanout::stdev           0.017279                       # Request fanout histogram
system.tol2bus.snoop_fanout::underflows             0      0.00%      0.00% # Request fanout histogram
system.tol2bus.snoop_fanout::0                2825096     99.97%     99.97% # Request fanout histogram
system.tol2bus.snoop_fanout::1                    844      0.03%    100.00% # Request fanout histogram
system.tol2bus.snoop_fanout::2                      0      0.00%    100.00% # Request fanout histogram
system.tol2bus.snoop_fanout::3                      0      0.00%    100.00% # Request fanout histogram
system.tol2bus.snoop_fanout::4                      0      0.00%    100.00% # Request fanout histogram
system.tol2bus.snoop_fanout::overflows              0      0.00%    100.00% # Request fanout histogram
system.tol2bus.snoop_fanout::min_value              0                       # Request fanout histogram
system.tol2bus.snoop_fanout::max_value              1                       # Request fanout histogram
system.tol2bus.snoop_fanout::total            2825940                       # Request fanout histogram
system.tol2bus.power_state.pwrStateResidencyTicks::UNDEFINED 128946461500                       # Cumulative time (in ticks) in various power states
system.tol2bus.reqLayer0.occupancy         2829277000                       # Layer occupancy (ticks)
system.tol2bus.reqLayer0.utilization              2.2                       # Layer utilization (%)
system.tol2bus.respLayer0.occupancy            139500                       # Layer occupancy (ticks)
system.tol2bus.respLayer0.utilization             0.0                       # Layer utilization (%)
system.tol2bus.respLayer1.occupancy        2121874500                       # Layer occupancy (ticks)
system.tol2bus.respLayer1.utilization             1.7                       # Layer utilization (%)
system.voltage_domain.voltage                       1                       # Voltage in Volts

---------- End Simulation Statistics   ----------
