
---------- Begin Simulation Statistics ----------
final_tick                                 9847898500                       # Number of ticks from beginning of simulation (restored from checkpoints and never reset)
host_inst_rate                                 103406                       # Simulator instruction rate (inst/s)
host_mem_usage                                8687864                       # Number of bytes of host memory used
host_op_rate                                   194534                       # Simulator op (including micro ops) rate (op/s)
host_seconds                                   106.38                       # Real time elapsed on the host
host_tick_rate                               82515424                       # Simulator tick rate (ticks/s)
sim_freq                                 1000000000000                       # Frequency of simulated ticks
sim_insts                                    11000001                       # Number of instructions simulated
sim_ops                                      20693944                       # Number of ops (including micro ops) simulated
sim_seconds                                  0.008778                       # Number of seconds simulated
sim_ticks                                  8777728500                       # Number of ticks simulated
system.cpu.committedInsts                           0                       # Number of instructions committed
system.cpu.committedOps                             0                       # Number of ops (including micro ops) committed
system.cpu.idle_fraction                            0                       # Percentage of idle cycles
system.cpu.not_idle_fraction                        1                       # Percentage of non-idle cycles
system.cpu.numCycles                                0                       # number of cpu cycles simulated
system.cpu.numWorkItemsCompleted                    0                       # number of work items this cpu completed
system.cpu.numWorkItemsStarted                      0                       # number of work items this cpu started
system.cpu.num_busy_cycles                          0                       # Number of busy cycles
system.cpu.num_conditional_control_insts            0                       # number of instructions that are conditional controls
system.cpu.num_fp_alu_accesses                      0                       # Number of float alu accesses
system.cpu.num_fp_insts                             0                       # number of float instructions
system.cpu.num_fp_register_reads                    0                       # number of times the floating registers were read
system.cpu.num_fp_register_writes                   0                       # number of times the floating registers were written
system.cpu.num_func_calls                           0                       # number of times a function call or return occured
system.cpu.num_idle_cycles                          0                       # Number of idle cycles
system.cpu.num_int_alu_accesses                     0                       # Number of integer alu accesses
system.cpu.num_int_insts                            0                       # number of integer instructions
system.cpu.num_int_register_reads                   0                       # number of times the integer registers were read
system.cpu.num_int_register_writes                  0                       # number of times the integer registers were written
system.cpu.num_load_insts                           0                       # Number of load instructions
system.cpu.num_mem_refs                             0                       # number of memory refs
system.cpu.num_store_insts                          0                       # Number of store instructions
system.cpu.num_vec_alu_accesses                     0                       # Number of vector alu accesses
system.cpu.num_vec_insts                            0                       # number of vector instructions
system.cpu.num_vec_register_reads                   0                       # number of times the vector registers were read
system.cpu.num_vec_register_writes                  0                       # number of times the vector registers were written
system.cpu.op_class::No_OpClass                     0                       # Class of executed instruction
system.cpu.op_class::IntAlu                         0                       # Class of executed instruction
system.cpu.op_class::IntMult                        0                       # Class of executed instruction
system.cpu.op_class::IntDiv                         0                       # Class of executed instruction
system.cpu.op_class::FloatAdd                       0                       # Class of executed instruction
system.cpu.op_class::FloatCmp                       0                       # Class of executed instruction
system.cpu.op_class::FloatCvt                       0                       # Class of executed instruction
system.cpu.op_class::FloatMult                      0                       # Class of executed instruction
system.cpu.op_class::FloatMultAcc                   0                       # Class of executed instruction
system.cpu.op_class::FloatDiv                       0                       # Class of executed instruction
system.cpu.op_class::FloatMisc                      0                       # Class of executed instruction
system.cpu.op_class::FloatSqrt                      0                       # Class of executed instruction
system.cpu.op_class::SimdAdd                        0                       # Class of executed instruction
system.cpu.op_class::SimdAddAcc                     0                       # Class of executed instruction
system.cpu.op_class::SimdAlu                        0                       # Class of executed instruction
system.cpu.op_class::SimdCmp                        0                       # Class of executed instruction
system.cpu.op_class::SimdCvt                        0                       # Class of executed instruction
system.cpu.op_class::SimdMisc                       0                       # Class of executed instruction
system.cpu.op_class::SimdMult                       0                       # Class of executed instruction
system.cpu.op_class::SimdMultAcc                    0                       # Class of executed instruction
system.cpu.op_class::SimdShift                      0                       # Class of executed instruction
system.cpu.op_class::SimdShiftAcc                   0                       # Class of executed instruction
system.cpu.op_class::SimdDiv                        0                       # Class of executed instruction
system.cpu.op_class::SimdSqrt                       0                       # Class of executed instruction
system.cpu.op_class::SimdFloatAdd                   0                       # Class of executed instruction
system.cpu.op_class::SimdFloatAlu                   0                       # Class of executed instruction
system.cpu.op_class::SimdFloatCmp                   0                       # Class of executed instruction
system.cpu.op_class::SimdFloatCvt                   0                       # Class of executed instruction
system.cpu.op_class::SimdFloatDiv                   0                       # Class of executed instruction
system.cpu.op_class::SimdFloatMisc                  0                       # Class of executed instruction
system.cpu.op_class::SimdFloatMult                  0                       # Class of executed instruction
system.cpu.op_class::SimdFloatMultAcc               0                       # Class of executed instruction
system.cpu.op_class::SimdFloatSqrt                  0                       # Class of executed instruction
system.cpu.op_class::SimdReduceAdd                  0                       # Class of executed instruction
system.cpu.op_class::SimdReduceAlu                  0                       # Class of executed instruction
system.cpu.op_class::SimdReduceCmp                  0                       # Class of executed instruction
system.cpu.op_class::SimdFloatReduceAdd             0                       # Class of executed instruction
system.cpu.op_class::SimdFloatReduceCmp             0                       # Class of executed instruction
system.cpu.op_class::SimdAes                        0                       # Class of executed instruction
system.cpu.op_class::SimdAesMix                     0                       # Class of executed instruction
system.cpu.op_class::SimdSha1Hash                   0                       # Class of executed instruction
system.cpu.op_class::SimdSha1Hash2                  0                       # Class of executed instruction
system.cpu.op_class::SimdSha256Hash                 0                       # Class of executed instruction
system.cpu.op_class::SimdSha256Hash2                0                       # Class of executed instruction
system.cpu.op_class::SimdShaSigma2                  0                       # Class of executed instruction
system.cpu.op_class::SimdShaSigma3                  0                       # Class of executed instruction
system.cpu.op_class::SimdPredAlu                    0                       # Class of executed instruction
system.cpu.op_class::MemRead                        0                       # Class of executed instruction
system.cpu.op_class::MemWrite                       0                       # Class of executed instruction
system.cpu.op_class::FloatMemRead                   0                       # Class of executed instruction
system.cpu.op_class::FloatMemWrite                  0                       # Class of executed instruction
system.cpu.op_class::IprAccess                      0                       # Class of executed instruction
system.cpu.op_class::InstPrefetch                   0                       # Class of executed instruction
system.cpu.op_class::total                          0                       # Class of executed instruction
system.cpu.workload.numSyscalls                     8                       # Number of system calls
system.membus.snoop_filter.hit_multi_requests            0                       # Number of requests hitting in the snoop filter with multiple (>1) holders of the requested data.
system.membus.snoop_filter.hit_multi_snoops            0                       # Number of snoops hitting in the snoop filter with multiple (>1) holders of the requested data.
system.membus.snoop_filter.hit_single_requests        19133                       # Number of requests hitting in the snoop filter with a single holder of the requested data.
system.membus.snoop_filter.hit_single_snoops            0                       # Number of snoops hitting in the snoop filter with a single holder of the requested data.
system.membus.snoop_filter.tot_requests         38464                       # Total number of requests made to the snoop filter.
system.membus.snoop_filter.tot_snoops               0                       # Total number of snoops made to the snoop filter.
system.switch_cpus.cc_regfile_reads          13491959                       # number of cc regfile reads
system.switch_cpus.cc_regfile_writes          8450624                       # number of cc regfile writes
system.switch_cpus.committedInsts            10000000                       # Number of Instructions Simulated
system.switch_cpus.committedOps              18867927                       # Number of Ops (including micro ops) Simulated
system.switch_cpus.cpi                       1.755546                       # CPI: Cycles Per Instruction
system.switch_cpus.cpi_total                 1.755546                       # CPI: Total CPI of All Threads
system.switch_cpus.fp_regfile_reads            364614                       # number of floating regfile reads
system.switch_cpus.fp_regfile_writes           226413                       # number of floating regfile writes
system.switch_cpus.idleCycles                  925746                       # Total number of cycles that the CPU has spent unscheduled due to idling
system.switch_cpus.iew.branchMispredicts       615618                       # Number of branch mispredicts detected at execute
system.switch_cpus.iew.exec_branches          2950411                       # Number of branches executed
system.switch_cpus.iew.exec_nop                     0                       # number of nop insts executed
system.switch_cpus.iew.exec_rate             1.712228                       # Inst execution rate
system.switch_cpus.iew.exec_refs              5972618                       # number of memory reference insts executed
system.switch_cpus.iew.exec_stores            2149735                       # Number of stores executed
system.switch_cpus.iew.exec_swp                     0                       # number of swp insts executed
system.switch_cpus.iew.iewBlockCycles         2013658                       # Number of cycles IEW is blocking
system.switch_cpus.iew.iewDispLoadInsts       4620123                       # Number of dispatched load instructions
system.switch_cpus.iew.iewDispNonSpecInsts         1402                       # Number of dispatched non-speculative instructions
system.switch_cpus.iew.iewDispSquashedInsts        44582                       # Number of squashed instructions skipped by dispatch
system.switch_cpus.iew.iewDispStoreInsts      2680389                       # Number of dispatched store instructions
system.switch_cpus.iew.iewDispatchedInsts     36020877                       # Number of instructions dispatched to IQ
system.switch_cpus.iew.iewExecLoadInsts       3822883                       # Number of load instructions executed
system.switch_cpus.iew.iewExecSquashedInsts      1124017                       # Number of squashed instructions skipped in execute
system.switch_cpus.iew.iewExecutedInsts      30058948                       # Number of executed instructions
system.switch_cpus.iew.iewIQFullEvents           2112                       # Number of times the IQ has become full, causing a stall
system.switch_cpus.iew.iewIdleCycles                0                       # Number of cycles IEW is idle
system.switch_cpus.iew.iewLSQFullEvents        483193                       # Number of times the LSQ has become full, causing a stall
system.switch_cpus.iew.iewSquashCycles         511733                       # Number of cycles IEW is squashing
system.switch_cpus.iew.iewUnblockCycles        485931                       # Number of cycles IEW is unblocking
system.switch_cpus.iew.memOrderViolationEvents         4912                       # Number of memory order violations
system.switch_cpus.iew.predictedNotTakenIncorrect       389071                       # Number of branches that were predicted not taken incorrectly
system.switch_cpus.iew.predictedTakenIncorrect       226547                       # Number of branches that were predicted taken incorrectly
system.switch_cpus.iew.wb_consumers          32807691                       # num instructions consuming a value
system.switch_cpus.iew.wb_count              29502516                       # cumulative count of insts written-back
system.switch_cpus.iew.wb_fanout             0.641930                       # average fanout of values written-back
system.switch_cpus.iew.wb_producers          21060250                       # num instructions producing a value
system.switch_cpus.iew.wb_rate               1.680532                       # insts written-back per cycle
system.switch_cpus.iew.wb_sent               29789544                       # cumulative count of insts sent to commit
system.switch_cpus.int_regfile_reads         41010056                       # number of integer regfile reads
system.switch_cpus.int_regfile_writes        23790005                       # number of integer regfile writes
system.switch_cpus.ipc                       0.569623                       # IPC: Instructions Per Cycle
system.switch_cpus.ipc_total                 0.569623                       # IPC: Total IPC of All Threads
system.switch_cpus.iq.FU_type_0::No_OpClass       769989      2.47%      2.47% # Type of FU issued
system.switch_cpus.iq.FU_type_0::IntAlu      23991398     76.94%     79.41% # Type of FU issued
system.switch_cpus.iq.FU_type_0::IntMult        18112      0.06%     79.46% # Type of FU issued
system.switch_cpus.iq.FU_type_0::IntDiv          2174      0.01%     79.47% # Type of FU issued
system.switch_cpus.iq.FU_type_0::FloatAdd        14525      0.05%     79.52% # Type of FU issued
system.switch_cpus.iq.FU_type_0::FloatCmp            0      0.00%     79.52% # Type of FU issued
system.switch_cpus.iq.FU_type_0::FloatCvt            0      0.00%     79.52% # Type of FU issued
system.switch_cpus.iq.FU_type_0::FloatMult            0      0.00%     79.52% # Type of FU issued
system.switch_cpus.iq.FU_type_0::FloatMultAcc            0      0.00%     79.52% # Type of FU issued
system.switch_cpus.iq.FU_type_0::FloatDiv            0      0.00%     79.52% # Type of FU issued
system.switch_cpus.iq.FU_type_0::FloatMisc            0      0.00%     79.52% # Type of FU issued
system.switch_cpus.iq.FU_type_0::FloatSqrt            0      0.00%     79.52% # Type of FU issued
system.switch_cpus.iq.FU_type_0::SimdAdd          901      0.00%     79.52% # Type of FU issued
system.switch_cpus.iq.FU_type_0::SimdAddAcc            0      0.00%     79.52% # Type of FU issued
system.switch_cpus.iq.FU_type_0::SimdAlu        19230      0.06%     79.58% # Type of FU issued
system.switch_cpus.iq.FU_type_0::SimdCmp           14      0.00%     79.58% # Type of FU issued
system.switch_cpus.iq.FU_type_0::SimdCvt         8265      0.03%     79.61% # Type of FU issued
system.switch_cpus.iq.FU_type_0::SimdMisc        35739      0.11%     79.72% # Type of FU issued
system.switch_cpus.iq.FU_type_0::SimdMult            0      0.00%     79.72% # Type of FU issued
system.switch_cpus.iq.FU_type_0::SimdMultAcc            0      0.00%     79.72% # Type of FU issued
system.switch_cpus.iq.FU_type_0::SimdShift           57      0.00%     79.72% # Type of FU issued
system.switch_cpus.iq.FU_type_0::SimdShiftAcc            0      0.00%     79.72% # Type of FU issued
system.switch_cpus.iq.FU_type_0::SimdDiv            0      0.00%     79.72% # Type of FU issued
system.switch_cpus.iq.FU_type_0::SimdSqrt            0      0.00%     79.72% # Type of FU issued
system.switch_cpus.iq.FU_type_0::SimdFloatAdd            3      0.00%     79.72% # Type of FU issued
system.switch_cpus.iq.FU_type_0::SimdFloatAlu            0      0.00%     79.72% # Type of FU issued
system.switch_cpus.iq.FU_type_0::SimdFloatCmp            0      0.00%     79.72% # Type of FU issued
system.switch_cpus.iq.FU_type_0::SimdFloatCvt           17      0.00%     79.72% # Type of FU issued
system.switch_cpus.iq.FU_type_0::SimdFloatDiv            2      0.00%     79.72% # Type of FU issued
system.switch_cpus.iq.FU_type_0::SimdFloatMisc            0      0.00%     79.72% # Type of FU issued
system.switch_cpus.iq.FU_type_0::SimdFloatMult            2      0.00%     79.72% # Type of FU issued
system.switch_cpus.iq.FU_type_0::SimdFloatMultAcc            0      0.00%     79.72% # Type of FU issued
system.switch_cpus.iq.FU_type_0::SimdFloatSqrt            0      0.00%     79.72% # Type of FU issued
system.switch_cpus.iq.FU_type_0::SimdReduceAdd            0      0.00%     79.72% # Type of FU issued
system.switch_cpus.iq.FU_type_0::SimdReduceAlu            0      0.00%     79.72% # Type of FU issued
system.switch_cpus.iq.FU_type_0::SimdReduceCmp            0      0.00%     79.72% # Type of FU issued
system.switch_cpus.iq.FU_type_0::SimdFloatReduceAdd            0      0.00%     79.72% # Type of FU issued
system.switch_cpus.iq.FU_type_0::SimdFloatReduceCmp            0      0.00%     79.72% # Type of FU issued
system.switch_cpus.iq.FU_type_0::SimdAes            0      0.00%     79.72% # Type of FU issued
system.switch_cpus.iq.FU_type_0::SimdAesMix            0      0.00%     79.72% # Type of FU issued
system.switch_cpus.iq.FU_type_0::SimdSha1Hash            0      0.00%     79.72% # Type of FU issued
system.switch_cpus.iq.FU_type_0::SimdSha1Hash2            0      0.00%     79.72% # Type of FU issued
system.switch_cpus.iq.FU_type_0::SimdSha256Hash            0      0.00%     79.72% # Type of FU issued
system.switch_cpus.iq.FU_type_0::SimdSha256Hash2            0      0.00%     79.72% # Type of FU issued
system.switch_cpus.iq.FU_type_0::SimdShaSigma2            0      0.00%     79.72% # Type of FU issued
system.switch_cpus.iq.FU_type_0::SimdShaSigma3            0      0.00%     79.72% # Type of FU issued
system.switch_cpus.iq.FU_type_0::SimdPredAlu            0      0.00%     79.72% # Type of FU issued
system.switch_cpus.iq.FU_type_0::MemRead      3889386     12.47%     92.20% # Type of FU issued
system.switch_cpus.iq.FU_type_0::MemWrite      2041431      6.55%     98.74% # Type of FU issued
system.switch_cpus.iq.FU_type_0::FloatMemRead       159103      0.51%     99.25% # Type of FU issued
system.switch_cpus.iq.FU_type_0::FloatMemWrite       232617      0.75%    100.00% # Type of FU issued
system.switch_cpus.iq.FU_type_0::IprAccess            0      0.00%    100.00% # Type of FU issued
system.switch_cpus.iq.FU_type_0::InstPrefetch            0      0.00%    100.00% # Type of FU issued
system.switch_cpus.iq.FU_type_0::total       31182965                       # Type of FU issued
system.switch_cpus.iq.fp_alu_accesses          531111                       # Number of floating point alu accesses
system.switch_cpus.iq.fp_inst_queue_reads      1016910                       # Number of floating instruction queue reads
system.switch_cpus.iq.fp_inst_queue_wakeup_accesses       453623                       # Number of floating instruction queue wakeup accesses
system.switch_cpus.iq.fp_inst_queue_writes       876444                       # Number of floating instruction queue writes
system.switch_cpus.iq.fu_busy_cnt              713451                       # FU busy when requested
system.switch_cpus.iq.fu_busy_rate           0.022880                       # FU busy rate (busy events/executed inst)
system.switch_cpus.iq.fu_full::No_OpClass            0      0.00%      0.00% # attempts to use FU when none available
system.switch_cpus.iq.fu_full::IntAlu          602536     84.45%     84.45% # attempts to use FU when none available
system.switch_cpus.iq.fu_full::IntMult              0      0.00%     84.45% # attempts to use FU when none available
system.switch_cpus.iq.fu_full::IntDiv               0      0.00%     84.45% # attempts to use FU when none available
system.switch_cpus.iq.fu_full::FloatAdd             0      0.00%     84.45% # attempts to use FU when none available
system.switch_cpus.iq.fu_full::FloatCmp             0      0.00%     84.45% # attempts to use FU when none available
system.switch_cpus.iq.fu_full::FloatCvt             0      0.00%     84.45% # attempts to use FU when none available
system.switch_cpus.iq.fu_full::FloatMult            0      0.00%     84.45% # attempts to use FU when none available
system.switch_cpus.iq.fu_full::FloatMultAcc            0      0.00%     84.45% # attempts to use FU when none available
system.switch_cpus.iq.fu_full::FloatDiv             0      0.00%     84.45% # attempts to use FU when none available
system.switch_cpus.iq.fu_full::FloatMisc            0      0.00%     84.45% # attempts to use FU when none available
system.switch_cpus.iq.fu_full::FloatSqrt            0      0.00%     84.45% # attempts to use FU when none available
system.switch_cpus.iq.fu_full::SimdAdd              1      0.00%     84.45% # attempts to use FU when none available
system.switch_cpus.iq.fu_full::SimdAddAcc            0      0.00%     84.45% # attempts to use FU when none available
system.switch_cpus.iq.fu_full::SimdAlu            933      0.13%     84.58% # attempts to use FU when none available
system.switch_cpus.iq.fu_full::SimdCmp              0      0.00%     84.58% # attempts to use FU when none available
system.switch_cpus.iq.fu_full::SimdCvt            101      0.01%     84.60% # attempts to use FU when none available
system.switch_cpus.iq.fu_full::SimdMisc            19      0.00%     84.60% # attempts to use FU when none available
system.switch_cpus.iq.fu_full::SimdMult             0      0.00%     84.60% # attempts to use FU when none available
system.switch_cpus.iq.fu_full::SimdMultAcc            0      0.00%     84.60% # attempts to use FU when none available
system.switch_cpus.iq.fu_full::SimdShift            9      0.00%     84.60% # attempts to use FU when none available
system.switch_cpus.iq.fu_full::SimdShiftAcc            0      0.00%     84.60% # attempts to use FU when none available
system.switch_cpus.iq.fu_full::SimdDiv              0      0.00%     84.60% # attempts to use FU when none available
system.switch_cpus.iq.fu_full::SimdSqrt             0      0.00%     84.60% # attempts to use FU when none available
system.switch_cpus.iq.fu_full::SimdFloatAdd            0      0.00%     84.60% # attempts to use FU when none available
system.switch_cpus.iq.fu_full::SimdFloatAlu            0      0.00%     84.60% # attempts to use FU when none available
system.switch_cpus.iq.fu_full::SimdFloatCmp            0      0.00%     84.60% # attempts to use FU when none available
system.switch_cpus.iq.fu_full::SimdFloatCvt            0      0.00%     84.60% # attempts to use FU when none available
system.switch_cpus.iq.fu_full::SimdFloatDiv            0      0.00%     84.60% # attempts to use FU when none available
system.switch_cpus.iq.fu_full::SimdFloatMisc            0      0.00%     84.60% # attempts to use FU when none available
system.switch_cpus.iq.fu_full::SimdFloatMult            0      0.00%     84.60% # attempts to use FU when none available
system.switch_cpus.iq.fu_full::SimdFloatMultAcc            0      0.00%     84.60% # attempts to use FU when none available
system.switch_cpus.iq.fu_full::SimdFloatSqrt            0      0.00%     84.60% # attempts to use FU when none available
system.switch_cpus.iq.fu_full::SimdReduceAdd            0      0.00%     84.60% # attempts to use FU when none available
system.switch_cpus.iq.fu_full::SimdReduceAlu            0      0.00%     84.60% # attempts to use FU when none available
system.switch_cpus.iq.fu_full::SimdReduceCmp            0      0.00%     84.60% # attempts to use FU when none available
system.switch_cpus.iq.fu_full::SimdFloatReduceAdd            0      0.00%     84.60% # attempts to use FU when none available
system.switch_cpus.iq.fu_full::SimdFloatReduceCmp            0      0.00%     84.60% # attempts to use FU when none available
system.switch_cpus.iq.fu_full::SimdAes              0      0.00%     84.60% # attempts to use FU when none available
system.switch_cpus.iq.fu_full::SimdAesMix            0      0.00%     84.60% # attempts to use FU when none available
system.switch_cpus.iq.fu_full::SimdSha1Hash            0      0.00%     84.60% # attempts to use FU when none available
system.switch_cpus.iq.fu_full::SimdSha1Hash2            0      0.00%     84.60% # attempts to use FU when none available
system.switch_cpus.iq.fu_full::SimdSha256Hash            0      0.00%     84.60% # attempts to use FU when none available
system.switch_cpus.iq.fu_full::SimdSha256Hash2            0      0.00%     84.60% # attempts to use FU when none available
system.switch_cpus.iq.fu_full::SimdShaSigma2            0      0.00%     84.60% # attempts to use FU when none available
system.switch_cpus.iq.fu_full::SimdShaSigma3            0      0.00%     84.60% # attempts to use FU when none available
system.switch_cpus.iq.fu_full::SimdPredAlu            0      0.00%     84.60% # attempts to use FU when none available
system.switch_cpus.iq.fu_full::MemRead          31112      4.36%     88.96% # attempts to use FU when none available
system.switch_cpus.iq.fu_full::MemWrite         29394      4.12%     93.08% # attempts to use FU when none available
system.switch_cpus.iq.fu_full::FloatMemRead        41210      5.78%     98.86% # attempts to use FU when none available
system.switch_cpus.iq.fu_full::FloatMemWrite         8136      1.14%    100.00% # attempts to use FU when none available
system.switch_cpus.iq.fu_full::IprAccess            0      0.00%    100.00% # attempts to use FU when none available
system.switch_cpus.iq.fu_full::InstPrefetch            0      0.00%    100.00% # attempts to use FU when none available
system.switch_cpus.iq.int_alu_accesses       30595316                       # Number of integer alu accesses
system.switch_cpus.iq.int_inst_queue_reads     78929520                       # Number of integer instruction queue reads
system.switch_cpus.iq.int_inst_queue_wakeup_accesses     29048893                       # Number of integer instruction queue wakeup accesses
system.switch_cpus.iq.int_inst_queue_writes     52301988                       # Number of integer instruction queue writes
system.switch_cpus.iq.iqInstsAdded           36015744                       # Number of instructions added to the IQ (excludes non-spec)
system.switch_cpus.iq.iqInstsIssued          31182965                       # Number of instructions issued
system.switch_cpus.iq.iqNonSpecInstsAdded         5133                       # Number of non-speculative instructions added to the IQ
system.switch_cpus.iq.iqSquashedInstsExamined     17152950                       # Number of squashed instructions iterated over during squash; mainly for profiling
system.switch_cpus.iq.iqSquashedInstsIssued       237338                       # Number of squashed instructions issued
system.switch_cpus.iq.iqSquashedNonSpecRemoved         2909                       # Number of squashed non-spec instructions that were removed
system.switch_cpus.iq.iqSquashedOperandsExamined     20327742                       # Number of squashed operands that are examined and possibly removed from graph
system.switch_cpus.iq.issued_per_cycle::samples     16629711                       # Number of insts issued each cycle
system.switch_cpus.iq.issued_per_cycle::mean     1.875136                       # Number of insts issued each cycle
system.switch_cpus.iq.issued_per_cycle::stdev     2.436277                       # Number of insts issued each cycle
system.switch_cpus.iq.issued_per_cycle::underflows            0      0.00%      0.00% # Number of insts issued each cycle
system.switch_cpus.iq.issued_per_cycle::0      8757375     52.66%     52.66% # Number of insts issued each cycle
system.switch_cpus.iq.issued_per_cycle::1      1180887      7.10%     59.76% # Number of insts issued each cycle
system.switch_cpus.iq.issued_per_cycle::2      1149666      6.91%     66.68% # Number of insts issued each cycle
system.switch_cpus.iq.issued_per_cycle::3      1155009      6.95%     73.62% # Number of insts issued each cycle
system.switch_cpus.iq.issued_per_cycle::4      1242656      7.47%     81.09% # Number of insts issued each cycle
system.switch_cpus.iq.issued_per_cycle::5      1007528      6.06%     87.15% # Number of insts issued each cycle
system.switch_cpus.iq.issued_per_cycle::6      1069479      6.43%     93.58% # Number of insts issued each cycle
system.switch_cpus.iq.issued_per_cycle::7       724307      4.36%     97.94% # Number of insts issued each cycle
system.switch_cpus.iq.issued_per_cycle::8       342804      2.06%    100.00% # Number of insts issued each cycle
system.switch_cpus.iq.issued_per_cycle::overflows            0      0.00%    100.00% # Number of insts issued each cycle
system.switch_cpus.iq.issued_per_cycle::min_value            0                       # Number of insts issued each cycle
system.switch_cpus.iq.issued_per_cycle::max_value            8                       # Number of insts issued each cycle
system.switch_cpus.iq.issued_per_cycle::total     16629711                       # Number of insts issued each cycle
system.switch_cpus.iq.rate                   1.776255                       # Inst issue rate
system.switch_cpus.iq.vec_alu_accesses              0                       # Number of vector alu accesses
system.switch_cpus.iq.vec_inst_queue_reads            0                       # Number of vector instruction queue reads
system.switch_cpus.iq.vec_inst_queue_wakeup_accesses            0                       # Number of vector instruction queue wakeup accesses
system.switch_cpus.iq.vec_inst_queue_writes            0                       # Number of vector instruction queue writes
system.switch_cpus.memDep0.conflictingLoads       207124                       # Number of conflicting loads.
system.switch_cpus.memDep0.conflictingStores       273359                       # Number of conflicting stores.
system.switch_cpus.memDep0.insertedLoads      4620123                       # Number of loads inserted to the mem dependence unit.
system.switch_cpus.memDep0.insertedStores      2680389                       # Number of stores inserted to the mem dependence unit.
system.switch_cpus.misc_regfile_reads        13311025                       # number of misc regfile reads
system.switch_cpus.numCycles                 17555457                       # number of cpu cycles simulated
system.switch_cpus.numWorkItemsCompleted            0                       # number of work items this cpu completed
system.switch_cpus.numWorkItemsStarted              0                       # number of work items this cpu started
system.switch_cpus.timesIdled                   72130                       # Number of times that the entire CPU went into an idle state and unscheduled itself
system.tol2bus.snoop_filter.hit_multi_requests          810                       # Number of requests hitting in the snoop filter with multiple (>1) holders of the requested data.
system.tol2bus.snoop_filter.hit_multi_snoops            4                       # Number of snoops hitting in the snoop filter with multiple (>1) holders of the requested data.
system.tol2bus.snoop_filter.hit_single_requests       253125                       # Number of requests hitting in the snoop filter with a single holder of the requested data.
system.tol2bus.snoop_filter.hit_single_snoops         1012                       # Number of snoops hitting in the snoop filter with a single holder of the requested data.
system.tol2bus.snoop_filter.tot_requests       506529                       # Total number of requests made to the snoop filter.
system.tol2bus.snoop_filter.tot_snoops           1016                       # Total number of snoops made to the snoop filter.
system.clk_domain.clock                          1000                       # Clock period in ticks
system.cpu.branchPred.lookups                       0                       # Number of BP lookups
system.cpu.branchPred.condPredicted                 0                       # Number of conditional branches predicted
system.cpu.branchPred.condIncorrect                 0                       # Number of conditional branches incorrect
system.cpu.branchPred.BTBLookups                    0                       # Number of BTB lookups
system.cpu.branchPred.BTBHits                       0                       # Number of BTB hits
system.cpu.branchPred.BTBHitPct                   nan                       # BTB Hit Percentage
system.cpu.branchPred.RASUsed                       0                       # Number of times the RAS was used to get a target.
system.cpu.branchPred.RASIncorrect                  0                       # Number of incorrect RAS predictions.
system.cpu.branchPred.indirectLookups               0                       # Number of indirect predictor lookups.
system.cpu.branchPred.indirectHits                  0                       # Number of indirect target hits.
system.cpu.branchPred.indirectMisses                0                       # Number of indirect misses.
system.cpu.branchPred.indirectMispredicted            0                       # Number of mispredicted indirect branches.
system.cpu.dcache.demand_hits::.switch_cpus.data      4843010                       # number of demand (read+write) hits
system.cpu.dcache.demand_hits::total          4843010                       # number of demand (read+write) hits
system.cpu.dcache.overall_hits::.switch_cpus.data      4871994                       # number of overall hits
system.cpu.dcache.overall_hits::total         4871994                       # number of overall hits
system.cpu.dcache.demand_misses::.switch_cpus.data        66060                       # number of demand (read+write) misses
system.cpu.dcache.demand_misses::total          66060                       # number of demand (read+write) misses
system.cpu.dcache.overall_misses::.switch_cpus.data        67990                       # number of overall misses
system.cpu.dcache.overall_misses::total         67990                       # number of overall misses
system.cpu.dcache.demand_miss_latency::.switch_cpus.data   1767769497                       # number of demand (read+write) miss cycles
system.cpu.dcache.demand_miss_latency::total   1767769497                       # number of demand (read+write) miss cycles
system.cpu.dcache.overall_miss_latency::.switch_cpus.data   1767769497                       # number of overall miss cycles
system.cpu.dcache.overall_miss_latency::total   1767769497                       # number of overall miss cycles
system.cpu.dcache.demand_accesses::.switch_cpus.data      4909070                       # number of demand (read+write) accesses
system.cpu.dcache.demand_accesses::total      4909070                       # number of demand (read+write) accesses
system.cpu.dcache.overall_accesses::.switch_cpus.data      4939984                       # number of overall (read+write) accesses
system.cpu.dcache.overall_accesses::total      4939984                       # number of overall (read+write) accesses
system.cpu.dcache.demand_miss_rate::.switch_cpus.data     0.013457                       # miss rate for demand accesses
system.cpu.dcache.demand_miss_rate::total     0.013457                       # miss rate for demand accesses
system.cpu.dcache.overall_miss_rate::.switch_cpus.data     0.013763                       # miss rate for overall accesses
system.cpu.dcache.overall_miss_rate::total     0.013763                       # miss rate for overall accesses
system.cpu.dcache.demand_avg_miss_latency::.switch_cpus.data 26760.058992                       # average overall miss latency
system.cpu.dcache.demand_avg_miss_latency::total 26760.058992                       # average overall miss latency
system.cpu.dcache.overall_avg_miss_latency::.switch_cpus.data 26000.433843                       # average overall miss latency
system.cpu.dcache.overall_avg_miss_latency::total 26000.433843                       # average overall miss latency
system.cpu.dcache.blocked_cycles::no_mshrs         3093                       # number of cycles access was blocked
system.cpu.dcache.blocked_cycles::no_targets            0                       # number of cycles access was blocked
system.cpu.dcache.blocked::no_mshrs               143                       # number of cycles access was blocked
system.cpu.dcache.blocked::no_targets               0                       # number of cycles access was blocked
system.cpu.dcache.avg_blocked_cycles::no_mshrs    21.629371                       # average number of cycles each access was blocked
system.cpu.dcache.avg_blocked_cycles::no_targets          nan                       # average number of cycles each access was blocked
system.cpu.dcache.writebacks::.writebacks        37693                       # number of writebacks
system.cpu.dcache.writebacks::total             37693                       # number of writebacks
system.cpu.dcache.demand_mshr_hits::.switch_cpus.data        16982                       # number of demand (read+write) MSHR hits
system.cpu.dcache.demand_mshr_hits::total        16982                       # number of demand (read+write) MSHR hits
system.cpu.dcache.overall_mshr_hits::.switch_cpus.data        16982                       # number of overall MSHR hits
system.cpu.dcache.overall_mshr_hits::total        16982                       # number of overall MSHR hits
system.cpu.dcache.demand_mshr_misses::.switch_cpus.data        49078                       # number of demand (read+write) MSHR misses
system.cpu.dcache.demand_mshr_misses::total        49078                       # number of demand (read+write) MSHR misses
system.cpu.dcache.overall_mshr_misses::.switch_cpus.data        49752                       # number of overall MSHR misses
system.cpu.dcache.overall_mshr_misses::total        49752                       # number of overall MSHR misses
system.cpu.dcache.demand_mshr_miss_latency::.switch_cpus.data   1433934997                       # number of demand (read+write) MSHR miss cycles
system.cpu.dcache.demand_mshr_miss_latency::total   1433934997                       # number of demand (read+write) MSHR miss cycles
system.cpu.dcache.overall_mshr_miss_latency::.switch_cpus.data   1475544997                       # number of overall MSHR miss cycles
system.cpu.dcache.overall_mshr_miss_latency::total   1475544997                       # number of overall MSHR miss cycles
system.cpu.dcache.demand_mshr_miss_rate::.switch_cpus.data     0.009997                       # mshr miss rate for demand accesses
system.cpu.dcache.demand_mshr_miss_rate::total     0.009997                       # mshr miss rate for demand accesses
system.cpu.dcache.overall_mshr_miss_rate::.switch_cpus.data     0.010071                       # mshr miss rate for overall accesses
system.cpu.dcache.overall_mshr_miss_rate::total     0.010071                       # mshr miss rate for overall accesses
system.cpu.dcache.demand_avg_mshr_miss_latency::.switch_cpus.data 29217.470088                       # average overall mshr miss latency
system.cpu.dcache.demand_avg_mshr_miss_latency::total 29217.470088                       # average overall mshr miss latency
system.cpu.dcache.overall_avg_mshr_miss_latency::.switch_cpus.data 29658.003638                       # average overall mshr miss latency
system.cpu.dcache.overall_avg_mshr_miss_latency::total 29658.003638                       # average overall mshr miss latency
system.cpu.dcache.replacements                  49508                       # number of replacements
system.cpu.dcache.ReadReq_hits::.switch_cpus.data      3480099                       # number of ReadReq hits
system.cpu.dcache.ReadReq_hits::total         3480099                       # number of ReadReq hits
system.cpu.dcache.ReadReq_misses::.switch_cpus.data        50357                       # number of ReadReq misses
system.cpu.dcache.ReadReq_misses::total         50357                       # number of ReadReq misses
system.cpu.dcache.ReadReq_miss_latency::.switch_cpus.data    915283500                       # number of ReadReq miss cycles
system.cpu.dcache.ReadReq_miss_latency::total    915283500                       # number of ReadReq miss cycles
system.cpu.dcache.ReadReq_accesses::.switch_cpus.data      3530456                       # number of ReadReq accesses(hits+misses)
system.cpu.dcache.ReadReq_accesses::total      3530456                       # number of ReadReq accesses(hits+misses)
system.cpu.dcache.ReadReq_miss_rate::.switch_cpus.data     0.014264                       # miss rate for ReadReq accesses
system.cpu.dcache.ReadReq_miss_rate::total     0.014264                       # miss rate for ReadReq accesses
system.cpu.dcache.ReadReq_avg_miss_latency::.switch_cpus.data 18175.894116                       # average ReadReq miss latency
system.cpu.dcache.ReadReq_avg_miss_latency::total 18175.894116                       # average ReadReq miss latency
system.cpu.dcache.ReadReq_mshr_hits::.switch_cpus.data        16325                       # number of ReadReq MSHR hits
system.cpu.dcache.ReadReq_mshr_hits::total        16325                       # number of ReadReq MSHR hits
system.cpu.dcache.ReadReq_mshr_misses::.switch_cpus.data        34032                       # number of ReadReq MSHR misses
system.cpu.dcache.ReadReq_mshr_misses::total        34032                       # number of ReadReq MSHR misses
system.cpu.dcache.ReadReq_mshr_miss_latency::.switch_cpus.data    607996500                       # number of ReadReq MSHR miss cycles
system.cpu.dcache.ReadReq_mshr_miss_latency::total    607996500                       # number of ReadReq MSHR miss cycles
system.cpu.dcache.ReadReq_mshr_miss_rate::.switch_cpus.data     0.009640                       # mshr miss rate for ReadReq accesses
system.cpu.dcache.ReadReq_mshr_miss_rate::total     0.009640                       # mshr miss rate for ReadReq accesses
system.cpu.dcache.ReadReq_avg_mshr_miss_latency::.switch_cpus.data 17865.435472                       # average ReadReq mshr miss latency
system.cpu.dcache.ReadReq_avg_mshr_miss_latency::total 17865.435472                       # average ReadReq mshr miss latency
system.cpu.dcache.WriteReq_hits::.switch_cpus.data      1362911                       # number of WriteReq hits
system.cpu.dcache.WriteReq_hits::total        1362911                       # number of WriteReq hits
system.cpu.dcache.WriteReq_misses::.switch_cpus.data        15703                       # number of WriteReq misses
system.cpu.dcache.WriteReq_misses::total        15703                       # number of WriteReq misses
system.cpu.dcache.WriteReq_miss_latency::.switch_cpus.data    852485997                       # number of WriteReq miss cycles
system.cpu.dcache.WriteReq_miss_latency::total    852485997                       # number of WriteReq miss cycles
system.cpu.dcache.WriteReq_accesses::.switch_cpus.data      1378614                       # number of WriteReq accesses(hits+misses)
system.cpu.dcache.WriteReq_accesses::total      1378614                       # number of WriteReq accesses(hits+misses)
system.cpu.dcache.WriteReq_miss_rate::.switch_cpus.data     0.011390                       # miss rate for WriteReq accesses
system.cpu.dcache.WriteReq_miss_rate::total     0.011390                       # miss rate for WriteReq accesses
system.cpu.dcache.WriteReq_avg_miss_latency::.switch_cpus.data 54288.097625                       # average WriteReq miss latency
system.cpu.dcache.WriteReq_avg_miss_latency::total 54288.097625                       # average WriteReq miss latency
system.cpu.dcache.WriteReq_mshr_hits::.switch_cpus.data          657                       # number of WriteReq MSHR hits
system.cpu.dcache.WriteReq_mshr_hits::total          657                       # number of WriteReq MSHR hits
system.cpu.dcache.WriteReq_mshr_misses::.switch_cpus.data        15046                       # number of WriteReq MSHR misses
system.cpu.dcache.WriteReq_mshr_misses::total        15046                       # number of WriteReq MSHR misses
system.cpu.dcache.WriteReq_mshr_miss_latency::.switch_cpus.data    825938497                       # number of WriteReq MSHR miss cycles
system.cpu.dcache.WriteReq_mshr_miss_latency::total    825938497                       # number of WriteReq MSHR miss cycles
system.cpu.dcache.WriteReq_mshr_miss_rate::.switch_cpus.data     0.010914                       # mshr miss rate for WriteReq accesses
system.cpu.dcache.WriteReq_mshr_miss_rate::total     0.010914                       # mshr miss rate for WriteReq accesses
system.cpu.dcache.WriteReq_avg_mshr_miss_latency::.switch_cpus.data 54894.224179                       # average WriteReq mshr miss latency
system.cpu.dcache.WriteReq_avg_mshr_miss_latency::total 54894.224179                       # average WriteReq mshr miss latency
system.cpu.dcache.SoftPFReq_hits::.switch_cpus.data        28984                       # number of SoftPFReq hits
system.cpu.dcache.SoftPFReq_hits::total         28984                       # number of SoftPFReq hits
system.cpu.dcache.SoftPFReq_misses::.switch_cpus.data         1930                       # number of SoftPFReq misses
system.cpu.dcache.SoftPFReq_misses::total         1930                       # number of SoftPFReq misses
system.cpu.dcache.SoftPFReq_accesses::.switch_cpus.data        30914                       # number of SoftPFReq accesses(hits+misses)
system.cpu.dcache.SoftPFReq_accesses::total        30914                       # number of SoftPFReq accesses(hits+misses)
system.cpu.dcache.SoftPFReq_miss_rate::.switch_cpus.data     0.062431                       # miss rate for SoftPFReq accesses
system.cpu.dcache.SoftPFReq_miss_rate::total     0.062431                       # miss rate for SoftPFReq accesses
system.cpu.dcache.SoftPFReq_mshr_misses::.switch_cpus.data          674                       # number of SoftPFReq MSHR misses
system.cpu.dcache.SoftPFReq_mshr_misses::total          674                       # number of SoftPFReq MSHR misses
system.cpu.dcache.SoftPFReq_mshr_miss_latency::.switch_cpus.data     41610000                       # number of SoftPFReq MSHR miss cycles
system.cpu.dcache.SoftPFReq_mshr_miss_latency::total     41610000                       # number of SoftPFReq MSHR miss cycles
system.cpu.dcache.SoftPFReq_mshr_miss_rate::.switch_cpus.data     0.021802                       # mshr miss rate for SoftPFReq accesses
system.cpu.dcache.SoftPFReq_mshr_miss_rate::total     0.021802                       # mshr miss rate for SoftPFReq accesses
system.cpu.dcache.SoftPFReq_avg_mshr_miss_latency::.switch_cpus.data 61735.905045                       # average SoftPFReq mshr miss latency
system.cpu.dcache.SoftPFReq_avg_mshr_miss_latency::total 61735.905045                       # average SoftPFReq mshr miss latency
system.cpu.dcache.power_state.pwrStateResidencyTicks::UNDEFINED   9847898500                       # Cumulative time (in ticks) in various power states
system.cpu.dcache.tags.tagsinuse                 1024                       # Cycle average of tags in use
system.cpu.dcache.tags.total_refs             5079798                       # Total number of references to valid blocks.
system.cpu.dcache.tags.sampled_refs             50532                       # Sample count of references to valid blocks.
system.cpu.dcache.tags.avg_refs            100.526360                       # Average number of references to valid blocks.
system.cpu.dcache.tags.warmup_cycle                 0                       # Cycle when the warmup percentage was hit.
system.cpu.dcache.tags.occ_blocks::.cpu.data    40.321094                       # Average occupied blocks per requestor
system.cpu.dcache.tags.occ_blocks::.switch_cpus.data   983.678906                       # Average occupied blocks per requestor
system.cpu.dcache.tags.occ_percent::.cpu.data     0.039376                       # Average percentage of cache occupancy
system.cpu.dcache.tags.occ_percent::.switch_cpus.data     0.960624                       # Average percentage of cache occupancy
system.cpu.dcache.tags.occ_percent::total            1                       # Average percentage of cache occupancy
system.cpu.dcache.tags.occ_task_id_blocks::1024         1024                       # Occupied blocks per task id
system.cpu.dcache.tags.age_task_id_blocks_1024::0           40                       # Occupied blocks per task id
system.cpu.dcache.tags.age_task_id_blocks_1024::1          210                       # Occupied blocks per task id
system.cpu.dcache.tags.age_task_id_blocks_1024::2          759                       # Occupied blocks per task id
system.cpu.dcache.tags.age_task_id_blocks_1024::3           15                       # Occupied blocks per task id
system.cpu.dcache.tags.occ_task_id_percent::1024            1                       # Percentage of cache occupancy per task id
system.cpu.dcache.tags.tag_accesses           9929476                       # Number of tag accesses
system.cpu.dcache.tags.data_accesses          9929476                       # Number of data accesses
system.cpu.dcache.tags.power_state.pwrStateResidencyTicks::UNDEFINED   9847898500                       # Cumulative time (in ticks) in various power states
system.cpu.dtb.rdAccesses                           0                       # TLB accesses on read requests
system.cpu.dtb.wrAccesses                           0                       # TLB accesses on write requests
system.cpu.dtb.rdMisses                             0                       # TLB misses on read requests
system.cpu.dtb.wrMisses                             0                       # TLB misses on write requests
system.cpu.dtb.walker.power_state.pwrStateResidencyTicks::UNDEFINED   9847898500                       # Cumulative time (in ticks) in various power states
system.cpu.dtb_walker_cache.blocked_cycles::no_mshrs            0                       # number of cycles access was blocked
system.cpu.dtb_walker_cache.blocked_cycles::no_targets            0                       # number of cycles access was blocked
system.cpu.dtb_walker_cache.blocked::no_mshrs            0                       # number of cycles access was blocked
system.cpu.dtb_walker_cache.blocked::no_targets            0                       # number of cycles access was blocked
system.cpu.dtb_walker_cache.avg_blocked_cycles::no_mshrs          nan                       # average number of cycles each access was blocked
system.cpu.dtb_walker_cache.avg_blocked_cycles::no_targets          nan                       # average number of cycles each access was blocked
system.cpu.dtb_walker_cache.replacements            0                       # number of replacements
system.cpu.dtb_walker_cache.power_state.pwrStateResidencyTicks::UNDEFINED   9847898500                       # Cumulative time (in ticks) in various power states
system.cpu.dtb_walker_cache.tags.tagsinuse            0                       # Cycle average of tags in use
system.cpu.dtb_walker_cache.tags.total_refs            0                       # Total number of references to valid blocks.
system.cpu.dtb_walker_cache.tags.sampled_refs            0                       # Sample count of references to valid blocks.
system.cpu.dtb_walker_cache.tags.avg_refs          nan                       # Average number of references to valid blocks.
system.cpu.dtb_walker_cache.tags.warmup_cycle            0                       # Cycle when the warmup percentage was hit.
system.cpu.dtb_walker_cache.tags.tag_accesses            0                       # Number of tag accesses
system.cpu.dtb_walker_cache.tags.data_accesses            0                       # Number of data accesses
system.cpu.dtb_walker_cache.tags.power_state.pwrStateResidencyTicks::UNDEFINED   9847898500                       # Cumulative time (in ticks) in various power states
system.cpu.icache.demand_hits::.switch_cpus.inst      3322253                       # number of demand (read+write) hits
system.cpu.icache.demand_hits::total          3322253                       # number of demand (read+write) hits
system.cpu.icache.overall_hits::.switch_cpus.inst      3322253                       # number of overall hits
system.cpu.icache.overall_hits::total         3322253                       # number of overall hits
system.cpu.icache.demand_misses::.switch_cpus.inst       229289                       # number of demand (read+write) misses
system.cpu.icache.demand_misses::total         229289                       # number of demand (read+write) misses
system.cpu.icache.overall_misses::.switch_cpus.inst       229289                       # number of overall misses
system.cpu.icache.overall_misses::total        229289                       # number of overall misses
system.cpu.icache.demand_miss_latency::.switch_cpus.inst   3400101487                       # number of demand (read+write) miss cycles
system.cpu.icache.demand_miss_latency::total   3400101487                       # number of demand (read+write) miss cycles
system.cpu.icache.overall_miss_latency::.switch_cpus.inst   3400101487                       # number of overall miss cycles
system.cpu.icache.overall_miss_latency::total   3400101487                       # number of overall miss cycles
system.cpu.icache.demand_accesses::.switch_cpus.inst      3551542                       # number of demand (read+write) accesses
system.cpu.icache.demand_accesses::total      3551542                       # number of demand (read+write) accesses
system.cpu.icache.overall_accesses::.switch_cpus.inst      3551542                       # number of overall (read+write) accesses
system.cpu.icache.overall_accesses::total      3551542                       # number of overall (read+write) accesses
system.cpu.icache.demand_miss_rate::.switch_cpus.inst     0.064560                       # miss rate for demand accesses
system.cpu.icache.demand_miss_rate::total     0.064560                       # miss rate for demand accesses
system.cpu.icache.overall_miss_rate::.switch_cpus.inst     0.064560                       # miss rate for overall accesses
system.cpu.icache.overall_miss_rate::total     0.064560                       # miss rate for overall accesses
system.cpu.icache.demand_avg_miss_latency::.switch_cpus.inst 14828.890557                       # average overall miss latency
system.cpu.icache.demand_avg_miss_latency::total 14828.890557                       # average overall miss latency
system.cpu.icache.overall_avg_miss_latency::.switch_cpus.inst 14828.890557                       # average overall miss latency
system.cpu.icache.overall_avg_miss_latency::total 14828.890557                       # average overall miss latency
system.cpu.icache.blocked_cycles::no_mshrs         5433                       # number of cycles access was blocked
system.cpu.icache.blocked_cycles::no_targets            0                       # number of cycles access was blocked
system.cpu.icache.blocked::no_mshrs               187                       # number of cycles access was blocked
system.cpu.icache.blocked::no_targets               0                       # number of cycles access was blocked
system.cpu.icache.avg_blocked_cycles::no_mshrs    29.053476                       # average number of cycles each access was blocked
system.cpu.icache.avg_blocked_cycles::no_targets          nan                       # average number of cycles each access was blocked
system.cpu.icache.writebacks::.writebacks       203542                       # number of writebacks
system.cpu.icache.writebacks::total            203542                       # number of writebacks
system.cpu.icache.demand_mshr_hits::.switch_cpus.inst        25562                       # number of demand (read+write) MSHR hits
system.cpu.icache.demand_mshr_hits::total        25562                       # number of demand (read+write) MSHR hits
system.cpu.icache.overall_mshr_hits::.switch_cpus.inst        25562                       # number of overall MSHR hits
system.cpu.icache.overall_mshr_hits::total        25562                       # number of overall MSHR hits
system.cpu.icache.demand_mshr_misses::.switch_cpus.inst       203727                       # number of demand (read+write) MSHR misses
system.cpu.icache.demand_mshr_misses::total       203727                       # number of demand (read+write) MSHR misses
system.cpu.icache.overall_mshr_misses::.switch_cpus.inst       203727                       # number of overall MSHR misses
system.cpu.icache.overall_mshr_misses::total       203727                       # number of overall MSHR misses
system.cpu.icache.demand_mshr_miss_latency::.switch_cpus.inst   2955332988                       # number of demand (read+write) MSHR miss cycles
system.cpu.icache.demand_mshr_miss_latency::total   2955332988                       # number of demand (read+write) MSHR miss cycles
system.cpu.icache.overall_mshr_miss_latency::.switch_cpus.inst   2955332988                       # number of overall MSHR miss cycles
system.cpu.icache.overall_mshr_miss_latency::total   2955332988                       # number of overall MSHR miss cycles
system.cpu.icache.demand_mshr_miss_rate::.switch_cpus.inst     0.057363                       # mshr miss rate for demand accesses
system.cpu.icache.demand_mshr_miss_rate::total     0.057363                       # mshr miss rate for demand accesses
system.cpu.icache.overall_mshr_miss_rate::.switch_cpus.inst     0.057363                       # mshr miss rate for overall accesses
system.cpu.icache.overall_mshr_miss_rate::total     0.057363                       # mshr miss rate for overall accesses
system.cpu.icache.demand_avg_mshr_miss_latency::.switch_cpus.inst 14506.339307                       # average overall mshr miss latency
system.cpu.icache.demand_avg_mshr_miss_latency::total 14506.339307                       # average overall mshr miss latency
system.cpu.icache.overall_avg_mshr_miss_latency::.switch_cpus.inst 14506.339307                       # average overall mshr miss latency
system.cpu.icache.overall_avg_mshr_miss_latency::total 14506.339307                       # average overall mshr miss latency
system.cpu.icache.replacements                 203542                       # number of replacements
system.cpu.icache.ReadReq_hits::.switch_cpus.inst      3322253                       # number of ReadReq hits
system.cpu.icache.ReadReq_hits::total         3322253                       # number of ReadReq hits
system.cpu.icache.ReadReq_misses::.switch_cpus.inst       229289                       # number of ReadReq misses
system.cpu.icache.ReadReq_misses::total        229289                       # number of ReadReq misses
system.cpu.icache.ReadReq_miss_latency::.switch_cpus.inst   3400101487                       # number of ReadReq miss cycles
system.cpu.icache.ReadReq_miss_latency::total   3400101487                       # number of ReadReq miss cycles
system.cpu.icache.ReadReq_accesses::.switch_cpus.inst      3551542                       # number of ReadReq accesses(hits+misses)
system.cpu.icache.ReadReq_accesses::total      3551542                       # number of ReadReq accesses(hits+misses)
system.cpu.icache.ReadReq_miss_rate::.switch_cpus.inst     0.064560                       # miss rate for ReadReq accesses
system.cpu.icache.ReadReq_miss_rate::total     0.064560                       # miss rate for ReadReq accesses
system.cpu.icache.ReadReq_avg_miss_latency::.switch_cpus.inst 14828.890557                       # average ReadReq miss latency
system.cpu.icache.ReadReq_avg_miss_latency::total 14828.890557                       # average ReadReq miss latency
system.cpu.icache.ReadReq_mshr_hits::.switch_cpus.inst        25562                       # number of ReadReq MSHR hits
system.cpu.icache.ReadReq_mshr_hits::total        25562                       # number of ReadReq MSHR hits
system.cpu.icache.ReadReq_mshr_misses::.switch_cpus.inst       203727                       # number of ReadReq MSHR misses
system.cpu.icache.ReadReq_mshr_misses::total       203727                       # number of ReadReq MSHR misses
system.cpu.icache.ReadReq_mshr_miss_latency::.switch_cpus.inst   2955332988                       # number of ReadReq MSHR miss cycles
system.cpu.icache.ReadReq_mshr_miss_latency::total   2955332988                       # number of ReadReq MSHR miss cycles
system.cpu.icache.ReadReq_mshr_miss_rate::.switch_cpus.inst     0.057363                       # mshr miss rate for ReadReq accesses
system.cpu.icache.ReadReq_mshr_miss_rate::total     0.057363                       # mshr miss rate for ReadReq accesses
system.cpu.icache.ReadReq_avg_mshr_miss_latency::.switch_cpus.inst 14506.339307                       # average ReadReq mshr miss latency
system.cpu.icache.ReadReq_avg_mshr_miss_latency::total 14506.339307                       # average ReadReq mshr miss latency
system.cpu.icache.power_state.pwrStateResidencyTicks::UNDEFINED   9847898500                       # Cumulative time (in ticks) in various power states
system.cpu.icache.tags.tagsinuse          1023.584751                       # Cycle average of tags in use
system.cpu.icache.tags.total_refs             3824735                       # Total number of references to valid blocks.
system.cpu.icache.tags.sampled_refs            204741                       # Sample count of references to valid blocks.
system.cpu.icache.tags.avg_refs             18.680846                       # Average number of references to valid blocks.
system.cpu.icache.tags.warmup_cycle                 0                       # Cycle when the warmup percentage was hit.
system.cpu.icache.tags.occ_blocks::.cpu.inst    37.687663                       # Average occupied blocks per requestor
system.cpu.icache.tags.occ_blocks::.switch_cpus.inst   985.897088                       # Average occupied blocks per requestor
system.cpu.icache.tags.occ_percent::.cpu.inst     0.036804                       # Average percentage of cache occupancy
system.cpu.icache.tags.occ_percent::.switch_cpus.inst     0.962790                       # Average percentage of cache occupancy
system.cpu.icache.tags.occ_percent::total     0.999594                       # Average percentage of cache occupancy
system.cpu.icache.tags.occ_task_id_blocks::1024         1024                       # Occupied blocks per task id
system.cpu.icache.tags.age_task_id_blocks_1024::0          298                       # Occupied blocks per task id
system.cpu.icache.tags.age_task_id_blocks_1024::1          423                       # Occupied blocks per task id
system.cpu.icache.tags.age_task_id_blocks_1024::2          251                       # Occupied blocks per task id
system.cpu.icache.tags.age_task_id_blocks_1024::3           52                       # Occupied blocks per task id
system.cpu.icache.tags.occ_task_id_percent::1024            1                       # Percentage of cache occupancy per task id
system.cpu.icache.tags.tag_accesses           7306810                       # Number of tag accesses
system.cpu.icache.tags.data_accesses          7306810                       # Number of data accesses
system.cpu.icache.tags.power_state.pwrStateResidencyTicks::UNDEFINED   9847898500                       # Cumulative time (in ticks) in various power states
system.cpu.interrupts.clk_domain.clock           8000                       # Clock period in ticks
system.cpu.itb.rdAccesses                           0                       # TLB accesses on read requests
system.cpu.itb.wrAccesses                           0                       # TLB accesses on write requests
system.cpu.itb.rdMisses                             0                       # TLB misses on read requests
system.cpu.itb.wrMisses                             0                       # TLB misses on write requests
system.cpu.itb.walker.power_state.pwrStateResidencyTicks::UNDEFINED   9847898500                       # Cumulative time (in ticks) in various power states
system.cpu.itb_walker_cache.blocked_cycles::no_mshrs            0                       # number of cycles access was blocked
system.cpu.itb_walker_cache.blocked_cycles::no_targets            0                       # number of cycles access was blocked
system.cpu.itb_walker_cache.blocked::no_mshrs            0                       # number of cycles access was blocked
system.cpu.itb_walker_cache.blocked::no_targets            0                       # number of cycles access was blocked
system.cpu.itb_walker_cache.avg_blocked_cycles::no_mshrs          nan                       # average number of cycles each access was blocked
system.cpu.itb_walker_cache.avg_blocked_cycles::no_targets          nan                       # average number of cycles each access was blocked
system.cpu.itb_walker_cache.replacements            0                       # number of replacements
system.cpu.itb_walker_cache.power_state.pwrStateResidencyTicks::UNDEFINED   9847898500                       # Cumulative time (in ticks) in various power states
system.cpu.itb_walker_cache.tags.tagsinuse            0                       # Cycle average of tags in use
system.cpu.itb_walker_cache.tags.total_refs            0                       # Total number of references to valid blocks.
system.cpu.itb_walker_cache.tags.sampled_refs            0                       # Sample count of references to valid blocks.
system.cpu.itb_walker_cache.tags.avg_refs          nan                       # Average number of references to valid blocks.
system.cpu.itb_walker_cache.tags.warmup_cycle            0                       # Cycle when the warmup percentage was hit.
system.cpu.itb_walker_cache.tags.tag_accesses            0                       # Number of tag accesses
system.cpu.itb_walker_cache.tags.data_accesses            0                       # Number of data accesses
system.cpu.itb_walker_cache.tags.power_state.pwrStateResidencyTicks::UNDEFINED   9847898500                       # Cumulative time (in ticks) in various power states
system.cpu.power_state.pwrStateResidencyTicks::OFF   8777728500                       # Cumulative time (in ticks) in various power states
system.cpu.thread_0.numInsts                        0                       # Number of Instructions committed
system.cpu.thread_0.numOps                          0                       # Number of Ops committed
system.cpu.thread_0.numMemRefs                      0                       # Number of Memory References
system.cpu_clk_domain.clock                       500                       # Clock period in ticks
system.cpu_voltage_domain.voltage                   1                       # Voltage in Volts
system.l2.demand_hits::.switch_cpus.inst       196623                       # number of demand (read+write) hits
system.l2.demand_hits::.switch_cpus.data        37021                       # number of demand (read+write) hits
system.l2.demand_hits::total                   233644                       # number of demand (read+write) hits
system.l2.overall_hits::.switch_cpus.inst       196623                       # number of overall hits
system.l2.overall_hits::.switch_cpus.data        37021                       # number of overall hits
system.l2.overall_hits::total                  233644                       # number of overall hits
system.l2.demand_misses::.switch_cpus.inst         6846                       # number of demand (read+write) misses
system.l2.demand_misses::.switch_cpus.data        12487                       # number of demand (read+write) misses
system.l2.demand_misses::total                  19333                       # number of demand (read+write) misses
system.l2.overall_misses::.switch_cpus.inst         6846                       # number of overall misses
system.l2.overall_misses::.switch_cpus.data        12487                       # number of overall misses
system.l2.overall_misses::total                 19333                       # number of overall misses
system.l2.demand_miss_latency::.switch_cpus.inst    572448500                       # number of demand (read+write) miss cycles
system.l2.demand_miss_latency::.switch_cpus.data   1005229500                       # number of demand (read+write) miss cycles
system.l2.demand_miss_latency::total       1577678000                       # number of demand (read+write) miss cycles
system.l2.overall_miss_latency::.switch_cpus.inst    572448500                       # number of overall miss cycles
system.l2.overall_miss_latency::.switch_cpus.data   1005229500                       # number of overall miss cycles
system.l2.overall_miss_latency::total      1577678000                       # number of overall miss cycles
system.l2.demand_accesses::.switch_cpus.inst       203469                       # number of demand (read+write) accesses
system.l2.demand_accesses::.switch_cpus.data        49508                       # number of demand (read+write) accesses
system.l2.demand_accesses::total               252977                       # number of demand (read+write) accesses
system.l2.overall_accesses::.switch_cpus.inst       203469                       # number of overall (read+write) accesses
system.l2.overall_accesses::.switch_cpus.data        49508                       # number of overall (read+write) accesses
system.l2.overall_accesses::total              252977                       # number of overall (read+write) accesses
system.l2.demand_miss_rate::.switch_cpus.inst     0.033646                       # miss rate for demand accesses
system.l2.demand_miss_rate::.switch_cpus.data     0.252222                       # miss rate for demand accesses
system.l2.demand_miss_rate::total            0.076422                       # miss rate for demand accesses
system.l2.overall_miss_rate::.switch_cpus.inst     0.033646                       # miss rate for overall accesses
system.l2.overall_miss_rate::.switch_cpus.data     0.252222                       # miss rate for overall accesses
system.l2.overall_miss_rate::total           0.076422                       # miss rate for overall accesses
system.l2.demand_avg_miss_latency::.switch_cpus.inst 83617.952089                       # average overall miss latency
system.l2.demand_avg_miss_latency::.switch_cpus.data 80502.082165                       # average overall miss latency
system.l2.demand_avg_miss_latency::total 81605.441473                       # average overall miss latency
system.l2.overall_avg_miss_latency::.switch_cpus.inst 83617.952089                       # average overall miss latency
system.l2.overall_avg_miss_latency::.switch_cpus.data 80502.082165                       # average overall miss latency
system.l2.overall_avg_miss_latency::total 81605.441473                       # average overall miss latency
system.l2.blocked_cycles::no_mshrs                  0                       # number of cycles access was blocked
system.l2.blocked_cycles::no_targets                0                       # number of cycles access was blocked
system.l2.blocked::no_mshrs                         0                       # number of cycles access was blocked
system.l2.blocked::no_targets                       0                       # number of cycles access was blocked
system.l2.avg_blocked_cycles::no_mshrs            nan                       # average number of cycles each access was blocked
system.l2.avg_blocked_cycles::no_targets          nan                       # average number of cycles each access was blocked
system.l2.writebacks::.writebacks               10004                       # number of writebacks
system.l2.writebacks::total                     10004                       # number of writebacks
system.l2.demand_mshr_hits::.switch_cpus.inst            1                       # number of demand (read+write) MSHR hits
system.l2.demand_mshr_hits::total                   1                       # number of demand (read+write) MSHR hits
system.l2.overall_mshr_hits::.switch_cpus.inst            1                       # number of overall MSHR hits
system.l2.overall_mshr_hits::total                  1                       # number of overall MSHR hits
system.l2.demand_mshr_misses::.switch_cpus.inst         6845                       # number of demand (read+write) MSHR misses
system.l2.demand_mshr_misses::.switch_cpus.data        12487                       # number of demand (read+write) MSHR misses
system.l2.demand_mshr_misses::total             19332                       # number of demand (read+write) MSHR misses
system.l2.overall_mshr_misses::.switch_cpus.inst         6845                       # number of overall MSHR misses
system.l2.overall_mshr_misses::.switch_cpus.data        12487                       # number of overall MSHR misses
system.l2.overall_mshr_misses::total            19332                       # number of overall MSHR misses
system.l2.demand_mshr_miss_latency::.switch_cpus.inst    503920500                       # number of demand (read+write) MSHR miss cycles
system.l2.demand_mshr_miss_latency::.switch_cpus.data    880359500                       # number of demand (read+write) MSHR miss cycles
system.l2.demand_mshr_miss_latency::total   1384280000                       # number of demand (read+write) MSHR miss cycles
system.l2.overall_mshr_miss_latency::.switch_cpus.inst    503920500                       # number of overall MSHR miss cycles
system.l2.overall_mshr_miss_latency::.switch_cpus.data    880359500                       # number of overall MSHR miss cycles
system.l2.overall_mshr_miss_latency::total   1384280000                       # number of overall MSHR miss cycles
system.l2.demand_mshr_miss_rate::.switch_cpus.inst     0.033641                       # mshr miss rate for demand accesses
system.l2.demand_mshr_miss_rate::.switch_cpus.data     0.252222                       # mshr miss rate for demand accesses
system.l2.demand_mshr_miss_rate::total       0.076418                       # mshr miss rate for demand accesses
system.l2.overall_mshr_miss_rate::.switch_cpus.inst     0.033641                       # mshr miss rate for overall accesses
system.l2.overall_mshr_miss_rate::.switch_cpus.data     0.252222                       # mshr miss rate for overall accesses
system.l2.overall_mshr_miss_rate::total      0.076418                       # mshr miss rate for overall accesses
system.l2.demand_avg_mshr_miss_latency::.switch_cpus.inst 73618.772827                       # average overall mshr miss latency
system.l2.demand_avg_mshr_miss_latency::.switch_cpus.data 70502.082165                       # average overall mshr miss latency
system.l2.demand_avg_mshr_miss_latency::total 71605.627974                       # average overall mshr miss latency
system.l2.overall_avg_mshr_miss_latency::.switch_cpus.inst 73618.772827                       # average overall mshr miss latency
system.l2.overall_avg_mshr_miss_latency::.switch_cpus.data 70502.082165                       # average overall mshr miss latency
system.l2.overall_avg_mshr_miss_latency::total 71605.627974                       # average overall mshr miss latency
system.l2.replacements                          19923                       # number of replacements
system.l2.WritebackDirty_hits::.writebacks        37693                       # number of WritebackDirty hits
system.l2.WritebackDirty_hits::total            37693                       # number of WritebackDirty hits
system.l2.WritebackDirty_accesses::.writebacks        37693                       # number of WritebackDirty accesses(hits+misses)
system.l2.WritebackDirty_accesses::total        37693                       # number of WritebackDirty accesses(hits+misses)
system.l2.WritebackClean_hits::.writebacks       203368                       # number of WritebackClean hits
system.l2.WritebackClean_hits::total           203368                       # number of WritebackClean hits
system.l2.WritebackClean_accesses::.writebacks       203368                       # number of WritebackClean accesses(hits+misses)
system.l2.WritebackClean_accesses::total       203368                       # number of WritebackClean accesses(hits+misses)
system.l2.CleanEvict_mshr_misses::.writebacks          209                       # number of CleanEvict MSHR misses
system.l2.CleanEvict_mshr_misses::total           209                       # number of CleanEvict MSHR misses
system.l2.CleanEvict_mshr_miss_rate::.writebacks          inf                       # mshr miss rate for CleanEvict accesses
system.l2.CleanEvict_mshr_miss_rate::total          inf                       # mshr miss rate for CleanEvict accesses
system.l2.UpgradeReq_hits::.switch_cpus.data          236                       # number of UpgradeReq hits
system.l2.UpgradeReq_hits::total                  236                       # number of UpgradeReq hits
[...]
system.switch_cpus.commit.committedInstType_0::SimdCmp           14      0.00%     79.85% # Class of committed instruction
system.switch_cpus.commit.committedInstType_0::SimdCvt         6358      0.03%     79.88% # Class of committed instruction
system.switch_cpus.commit.committedInstType_0::SimdMisc        30171      0.16%     80.04% # Class of committed instruction
system.switch_cpus.commit.committedInstType_0::SimdMult            0      0.00%     80.04% # Class of committed instruction
system.switch_cpus.commit.committedInstType_0::SimdMultAcc            0      0.00%     80.04% # Class of committed instruction
system.switch_cpus.commit.committedInstType_0::SimdShift           30      0.00%     80.04% # Class of committed instruction
system.switch_cpus.commit.committedInstType_0::SimdShiftAcc            0      0.00%     80.04% # Class of committed instruction
system.switch_cpus.commit.committedInstType_0::SimdDiv            0      0.00%     80.04% # Class of committed instruction
system.switch_cpus.commit.committedInstType_0::SimdSqrt            0      0.00%     80.04% # Class of committed instruction
system.switch_cpus.commit.committedInstType_0::SimdFloatAdd            3      0.00%     80.04% # Class of committed instruction
system.switch_cpus.commit.committedInstType_0::SimdFloatAlu            0      0.00%     80.04% # Class of committed instruction
system.switch_cpus.commit.committedInstType_0::SimdFloatCmp            0      0.00%     80.04% # Class of committed instruction
system.switch_cpus.commit.committedInstType_0::SimdFloatCvt            4      0.00%     80.04% # Class of committed instruction
system.switch_cpus.commit.committedInstType_0::SimdFloatDiv            1      0.00%     80.04% # Class of committed instruction
system.switch_cpus.commit.committedInstType_0::SimdFloatMisc            0      0.00%     80.04% # Class of committed instruction
system.switch_cpus.commit.committedInstType_0::SimdFloatMult            1      0.00%     80.04% # Class of committed instruction
system.switch_cpus.commit.committedInstType_0::SimdFloatMultAcc            0      0.00%     80.04% # Class of committed instruction
system.switch_cpus.commit.committedInstType_0::SimdFloatSqrt            0      0.00%     80.04% # Class of committed instruction
system.switch_cpus.commit.committedInstType_0::SimdReduceAdd            0      0.00%     80.04% # Class of committed instruction
system.switch_cpus.commit.committedInstType_0::SimdReduceAlu            0      0.00%     80.04% # Class of committed instruction
system.switch_cpus.commit.committedInstType_0::SimdReduceCmp            0      0.00%     80.04% # Class of committed instruction
system.switch_cpus.commit.committedInstType_0::SimdFloatReduceAdd            0      0.00%     80.04% # Class of committed instruction
system.switch_cpus.commit.committedInstType_0::SimdFloatReduceCmp            0      0.00%     80.04% # Class of committed instruction
system.switch_cpus.commit.committedInstType_0::SimdAes            0      0.00%     80.04% # Class of committed instruction
system.switch_cpus.commit.committedInstType_0::SimdAesMix            0      0.00%     80.04% # Class of committed instruction
system.switch_cpus.commit.committedInstType_0::SimdSha1Hash            0      0.00%     80.04% # Class of committed instruction
system.switch_cpus.commit.committedInstType_0::SimdSha1Hash2            0      0.00%     80.04% # Class of committed instruction
system.switch_cpus.commit.committedInstType_0::SimdSha256Hash            0      0.00%     80.04% # Class of committed instruction
system.switch_cpus.commit.committedInstType_0::SimdSha256Hash2            0      0.00%     80.04% # Class of committed instruction
system.switch_cpus.commit.committedInstType_0::SimdShaSigma2            0      0.00%     80.04% # Class of committed instruction
system.switch_cpus.commit.committedInstType_0::SimdShaSigma3            0      0.00%     80.04% # Class of committed instruction
system.switch_cpus.commit.committedInstType_0::SimdPredAlu            0      0.00%     80.04% # Class of committed instruction
system.switch_cpus.commit.committedInstType_0::MemRead      2358859     12.50%     92.54% # Class of committed instruction
system.switch_cpus.commit.committedInstType_0::MemWrite      1283780      6.80%     99.35% # Class of committed instruction
system.switch_cpus.commit.committedInstType_0::FloatMemRead        28534      0.15%     99.50% # Class of committed instruction
system.switch_cpus.commit.committedInstType_0::FloatMemWrite        94674      0.50%    100.00% # Class of committed instruction
system.switch_cpus.commit.committedInstType_0::IprAccess            0      0.00%    100.00% # Class of committed instruction
system.switch_cpus.commit.committedInstType_0::InstPrefetch            0      0.00%    100.00% # Class of committed instruction
system.switch_cpus.commit.committedInstType_0::total     18867927                       # Class of committed instruction
system.switch_cpus.commit.commitEligibleSamples       826245                       # number cycles where commit BW limit reached
system.switch_cpus.decode.idleCycles          6198416                       # Number of cycles decode is idle
system.switch_cpus.decode.blockedCycles       3626149                       # Number of cycles decode is blocked
system.switch_cpus.decode.runCycles           5878144                       # Number of cycles decode is running
system.switch_cpus.decode.unblockCycles        415264                       # Number of cycles decode is unblocking
system.switch_cpus.decode.squashCycles         511733                       # Number of cycles decode is squashing
system.switch_cpus.decode.branchResolved      1813178                       # Number of times decode resolved a  branch
system.switch_cpus.decode.branchMispred         61531                       # Number of times decode detected a branch misprediction
system.switch_cpus.decode.decodedInsts       41877707                       # Number of instructions handled by decode
system.switch_cpus.decode.squashedInsts        242502                       # Number of squashed instructions handled by decode
system.switch_cpus.dtb.rdAccesses             3823775                       # TLB accesses on read requests
system.switch_cpus.dtb.wrAccesses             2150987                       # TLB accesses on write requests
system.switch_cpus.dtb.rdMisses                 26821                       # TLB misses on read requests
system.switch_cpus.dtb.wrMisses                  2590                       # TLB misses on write requests
system.switch_cpus.dtb.walker.power_state.pwrStateResidencyTicks::UNDEFINED   9847898500                       # Cumulative time (in ticks) in various power states
system.switch_cpus.fetch.icacheStallCycles      7025324                       # Number of cycles fetch is stalled on an Icache miss
system.switch_cpus.fetch.insts               23988993                       # Number of instructions fetch has processed
system.switch_cpus.fetch.branches             5235669                       # Number of branches that fetch encountered
system.switch_cpus.fetch.predictedBranches      2182391                       # Number of branches that fetch has predicted taken
system.switch_cpus.fetch.cycles               9003083                       # Number of cycles fetch has run and was not squashing or blocked
system.switch_cpus.fetch.squashCycles         1142096                       # Number of cycles fetch has spent squashing
system.switch_cpus.fetch.tlbCycles                 52                       # Number of cycles fetch has spent waiting for tlb
system.switch_cpus.fetch.miscStallCycles         3371                       # Number of cycles fetch has spent waiting on interrupts,or bad addresses, or out of MSHRs
system.switch_cpus.fetch.pendingTrapStallCycles        26132                       # Number of stall cycles due to pending traps
system.switch_cpus.fetch.icacheWaitRetryStallCycles          701                       # Number of stall cycles due to full MSHR
system.switch_cpus.fetch.cacheLines           3551547                       # Number of cache lines fetched
system.switch_cpus.fetch.icacheSquashes        219771                       # Number of outstanding Icache misses that were squashed
system.switch_cpus.fetch.tlbSquashes                1                       # Number of outstanding ITLB misses that were squashed
system.switch_cpus.fetch.nisnDist::samples     16629711                       # Number of instructions fetched each cycle (Total)
system.switch_cpus.fetch.nisnDist::mean      2.715169                       # Number of instructions fetched each cycle (Total)
system.switch_cpus.fetch.nisnDist::stdev     3.479197                       # Number of instructions fetched each cycle (Total)
system.switch_cpus.fetch.nisnDist::underflows            0      0.00%      0.00% # Number of instructions fetched each cycle (Total)
system.switch_cpus.fetch.nisnDist::0          9543632     57.39%     57.39% # Number of instructions fetched each cycle (Total)
system.switch_cpus.fetch.nisnDist::1           369570      2.22%     59.61% # Number of instructions fetched each cycle (Total)
system.switch_cpus.fetch.nisnDist::2           316261      1.90%     61.51% # Number of instructions fetched each cycle (Total)
system.switch_cpus.fetch.nisnDist::3           374935      2.25%     63.77% # Number of instructions fetched each cycle (Total)
system.switch_cpus.fetch.nisnDist::4           544417      3.27%     67.04% # Number of instructions fetched each cycle (Total)
system.switch_cpus.fetch.nisnDist::5           579637      3.49%     70.53% # Number of instructions fetched each cycle (Total)
system.switch_cpus.fetch.nisnDist::6           455079      2.74%     73.26% # Number of instructions fetched each cycle (Total)
system.switch_cpus.fetch.nisnDist::7           350193      2.11%     75.37% # Number of instructions fetched each cycle (Total)
system.switch_cpus.fetch.nisnDist::8          4095987     24.63%    100.00% # Number of instructions fetched each cycle (Total)
system.switch_cpus.fetch.nisnDist::overflows            0      0.00%    100.00% # Number of instructions fetched each cycle (Total)
system.switch_cpus.fetch.nisnDist::min_value            0                       # Number of instructions fetched each cycle (Total)
system.switch_cpus.fetch.nisnDist::max_value            8                       # Number of instructions fetched each cycle (Total)
system.switch_cpus.fetch.nisnDist::total     16629711                       # Number of instructions fetched each cycle (Total)
system.switch_cpus.fetch.branchRate          0.298236                       # Number of branch fetches per cycle
system.switch_cpus.fetch.rate                1.366469                       # Number of inst fetches per cycle
system.switch_cpus.itb.rdAccesses                   0                       # TLB accesses on read requests
system.switch_cpus.itb.wrAccesses             3557005                       # TLB accesses on write requests
system.switch_cpus.itb.rdMisses                     0                       # TLB misses on read requests
system.switch_cpus.itb.wrMisses                 39842                       # TLB misses on write requests
system.switch_cpus.itb.walker.power_state.pwrStateResidencyTicks::UNDEFINED   9847898500                       # Cumulative time (in ticks) in various power states
system.switch_cpus.lsq0.forwLoads              236018                       # Number of loads that had data forwarded from stores
system.switch_cpus.lsq0.squashedLoads         2232730                       # Number of loads squashed
system.switch_cpus.lsq0.ignoredResponses         4003                       # Number of memory responses ignored because the instruction is squashed
system.switch_cpus.lsq0.memOrderViolation         4912                       # Number of memory ordering violations
system.switch_cpus.lsq0.squashedStores        1301935                       # Number of stores squashed
system.switch_cpus.lsq0.rescheduledLoads         7944                       # Number of loads that were rescheduled
system.switch_cpus.lsq0.blockedByCache            118                       # Number of times an access to memory failed due to the cache being blocked
system.switch_cpus.power_state.pwrStateResidencyTicks::OFF   9847898500                       # Cumulative time (in ticks) in various power states
system.switch_cpus.rename.squashCycles         511733                       # Number of cycles rename is squashing
system.switch_cpus.rename.idleCycles          6548794                       # Number of cycles rename is idle
system.switch_cpus.rename.blockCycles         2639100                       # Number of cycles rename is blocking
system.switch_cpus.rename.serializeStallCycles           17                       # count of cycles rename stalledfor serializing inst
system.switch_cpus.rename.runCycles           5897309                       # Number of cycles rename is running
system.switch_cpus.rename.unblockCycles       1032753                       # Number of cycles rename is unblocking
system.switch_cpus.rename.renamedInsts       39950501                       # Number of instructions processed by rename
system.switch_cpus.rename.ROBFullEvents          8359                       # Number of times rename has blocked due to ROB full
system.switch_cpus.rename.IQFullEvents          60796                       # Number of times rename has blocked due to IQ full
system.switch_cpus.rename.LQFullEvents           6407                       # Number of times rename has blocked due to LQ full
system.switch_cpus.rename.SQFullEvents         919488                       # Number of times rename has blocked due to SQ full
system.switch_cpus.rename.renamedOperands     43656146                       # Number of destination operands rename has renamed
system.switch_cpus.rename.lookups            97064209                       # Number of register rename lookups that rename has made
system.switch_cpus.rename.intLookups         57492850                       # Number of integer rename lookups
system.switch_cpus.rename.fpLookups            470462                       # Number of floating rename lookups
system.switch_cpus.rename.committedMaps      21340992                       # Number of HB maps that are committed
system.switch_cpus.rename.undoneMaps         22315153                       # Number of HB maps that are undone due to squashing
system.switch_cpus.rename.serializing               4                       # count of serializing insts renamed
system.switch_cpus.rename.tempSerializing            4                       # count of temporary serializing insts renamed
system.switch_cpus.rename.skidInsts            619577                       # count of insts added to the skid buffer
system.switch_cpus.rob.reads                 49189382                       # The number of ROB reads
system.switch_cpus.rob.writes                74299378                       # The number of ROB writes
system.switch_cpus.thread_0.numInsts         10000000                       # Number of Instructions committed
system.switch_cpus.thread_0.numOps           18867927                       # Number of Ops committed
system.switch_cpus.thread_0.numMemRefs              0                       # Number of Memory References
system.tol2bus.trans_dist::ReadResp            238417                       # Transaction distribution
system.tol2bus.trans_dist::WritebackDirty        47697                       # Transaction distribution
system.tol2bus.trans_dist::WritebackClean       203542                       # Transaction distribution
system.tol2bus.trans_dist::CleanEvict           21734                       # Transaction distribution
system.tol2bus.trans_dist::UpgradeReq             244                       # Transaction distribution
system.tol2bus.trans_dist::UpgradeResp            244                       # Transaction distribution
system.tol2bus.trans_dist::ReadExReq            14817                       # Transaction distribution
system.tol2bus.trans_dist::ReadExResp           14817                       # Transaction distribution
system.tol2bus.trans_dist::ReadCleanReq        203727                       # Transaction distribution
system.tol2bus.trans_dist::ReadSharedReq        34691                       # Transaction distribution
system.tol2bus.pkt_count_system.cpu.icache.mem_side_port::system.l2.cpu_side_port       610737                       # Packet count per connected requestor and responder (bytes)
system.tol2bus.pkt_count_system.cpu.dcache.mem_side_port::system.l2.cpu_side_port       149012                       # Packet count per connected requestor and responder (bytes)
system.tol2bus.pkt_count::total                759749                       # Packet count per connected requestor and responder (bytes)
system.tol2bus.pkt_size_system.cpu.icache.mem_side_port::system.l2.cpu_side_port     26048640                       # Cumulative packet size per connected requestor and responder (bytes)
system.tol2bus.pkt_size_system.cpu.dcache.mem_side_port::system.l2.cpu_side_port      5580864                       # Cumulative packet size per connected requestor and responder (bytes)
system.tol2bus.pkt_size::total               31629504                       # Cumulative packet size per connected requestor and responder (bytes)
system.tol2bus.snoops                           20181                       # Total snoops (count)
system.tol2bus.snoopTraffic                    656768                       # Total snoop traffic (bytes)
system.tol2bus.snoop_fanout::samples           273402                       # Request fanout histogram
system.tol2bus.snoop_fanout::mean            0.006712                       # Request fanout histogram
system.tol2bus.snoop_fanout::stdev           0.081829                       # Request fanout histogram
system.tol2bus.snoop_fanout::underflows             0      0.00%      0.00% # Request fanout histogram
system.tol2bus.snoop_fanout::0                 271571     99.33%     99.33% # Request fanout histogram
system.tol2bus.snoop_fanout::1                   1827      0.67%    100.00% # Request fanout histogram
system.tol2bus.snoop_fanout::2                      4      0.00%    100.00% # Request fanout histogram
system.tol2bus.snoop_fanout::3                      0      0.00%    100.00% # Request fanout histogram
system.tol2bus.snoop_fanout::4                      0      0.00%    100.00% # Request fanout histogram
system.tol2bus.snoop_fanout::overflows              0      0.00%    100.00% # Request fanout histogram
system.tol2bus.snoop_fanout::min_value              0                       # Request fanout histogram
system.tol2bus.snoop_fanout::max_value              2                       # Request fanout histogram
system.tol2bus.snoop_fanout::total             273402                       # Request fanout histogram
system.tol2bus.power_state.pwrStateResidencyTicks::UNDEFINED   9847898500                       # Cumulative time (in ticks) in various power states
system.tol2bus.reqLayer0.occupancy          494499500                       # Layer occupancy (ticks)
system.tol2bus.reqLayer0.utilization              5.6                       # Layer utilization (%)
system.tol2bus.respLayer0.occupancy         305609958                       # Layer occupancy (ticks)
system.tol2bus.respLayer0.utilization             3.5                       # Layer utilization (%)
system.tol2bus.respLayer1.occupancy          74401964                       # Layer occupancy (ticks)
system.tol2bus.respLayer1.utilization             0.8                       # Layer utilization (%)
system.voltage_domain.voltage                       1                       # Voltage in Volts

---------- End Simulation Statistics   ----------
