
---------- Begin Simulation Statistics ----------
final_tick                                 5544372000                       # Number of ticks from beginning of simulation (restored from checkpoints and never reset)
host_inst_rate                                 113215                       # Simulator instruction rate (inst/s)
host_mem_usage                                8738440                       # Number of bytes of host memory used
host_op_rate                                   214312                       # Simulator op (including micro ops) rate (op/s)
host_seconds                                    58.55                       # Real time elapsed on the host
host_tick_rate                               76758109                       # Simulator tick rate (ticks/s)
sim_freq                                 1000000000000                       # Frequency of simulated ticks
sim_insts                                     6628200                       # Number of instructions simulated
sim_ops                                      12546979                       # Number of ops (including micro ops) simulated
sim_seconds                                  0.004494                       # Number of seconds simulated
sim_ticks                                  4493824500                       # Number of ticks simulated
system.cpu.committedInsts                           0                       # Number of instructions committed
system.cpu.committedOps                             0                       # Number of ops (including micro ops) committed
system.cpu.idle_fraction                            0                       # Percentage of idle cycles
system.cpu.not_idle_fraction                        1                       # Percentage of non-idle cycles
system.cpu.numCycles                                0                       # number of cpu cycles simulated
system.cpu.numWorkItemsCompleted                    0                       # number of work items this cpu completed
system.cpu.numWorkItemsStarted                      0                       # number of work items this cpu started
system.cpu.num_busy_cycles                          0                       # Number of busy cycles
system.cpu.num_conditional_control_insts            0                       # number of instructions that are conditional controls
system.cpu.num_fp_alu_accesses                      0                       # Number of float alu accesses
system.cpu.num_fp_insts                             0                       # number of float instructions
system.cpu.num_fp_register_reads                    0                       # number of times the floating registers were read
system.cpu.num_fp_register_writes                   0                       # number of times the floating registers were written
system.cpu.num_func_calls                           0                       # number of times a function call or return occured
system.cpu.num_idle_cycles                          0                       # Number of idle cycles
system.cpu.num_int_alu_accesses                     0                       # Number of integer alu accesses
system.cpu.num_int_insts                            0                       # number of integer instructions
system.cpu.num_int_register_reads                   0                       # number of times the integer registers were read
system.cpu.num_int_register_writes                  0                       # number of times the integer registers were written
system.cpu.num_load_insts                           0                       # Number of load instructions
system.cpu.num_mem_refs                             0                       # number of memory refs
system.cpu.num_store_insts                          0                       # Number of store instructions
system.cpu.num_vec_alu_accesses                     0                       # Number of vector alu accesses
system.cpu.num_vec_insts                            0                       # number of vector instructions
system.cpu.num_vec_register_reads                   0                       # number of times the vector registers were read
system.cpu.num_vec_register_writes                  0                       # number of times the vector registers were written
system.cpu.op_class::No_OpClass                     0                       # Class of executed instruction
system.cpu.op_class::IntAlu                         0                       # Class of executed instruction
system.cpu.op_class::IntMult                        0                       # Class of executed instruction
system.cpu.op_class::IntDiv                         0                       # Class of executed instruction
system.cpu.op_class::FloatAdd                       0                       # Class of executed instruction
system.cpu.op_class::FloatCmp                       0                       # Class of executed instruction
system.cpu.op_class::FloatCvt                       0                       # Class of executed instruction
system.cpu.op_class::FloatMult                      0                       # Class of executed instruction
system.cpu.op_class::FloatMultAcc                   0                       # Class of executed instruction
system.cpu.op_class::FloatDiv                       0                       # Class of executed instruction
system.cpu.op_class::FloatMisc                      0                       # Class of executed instruction
system.cpu.op_class::FloatSqrt                      0                       # Class of executed instruction
system.cpu.op_class::SimdAdd                        0                       # Class of executed instruction
system.cpu.op_class::SimdAddAcc                     0                       # Class of executed instruction
system.cpu.op_class::SimdAlu                        0                       # Class of executed instruction
system.cpu.op_class::SimdCmp                        0                       # Class of executed instruction
system.cpu.op_class::SimdCvt                        0                       # Class of executed instruction
system.cpu.op_class::SimdMisc                       0                       # Class of executed instruction
system.cpu.op_class::SimdMult                       0                       # Class of executed instruction
system.cpu.op_class::SimdMultAcc                    0                       # Class of executed instruction
system.cpu.op_class::SimdShift                      0                       # Class of executed instruction
system.cpu.op_class::SimdShiftAcc                   0                       # Class of executed instruction
system.cpu.op_class::SimdDiv                        0                       # Class of executed instruction
system.cpu.op_class::SimdSqrt                       0                       # Class of executed instruction
system.cpu.op_class::SimdFloatAdd                   0                       # Class of executed instruction
system.cpu.op_class::SimdFloatAlu                   0                       # Class of executed instruction
system.cpu.op_class::SimdFloatCmp                   0                       # Class of executed instruction
system.cpu.op_class::SimdFloatCvt                   0                       # Class of executed instruction
system.cpu.op_class::SimdFloatDiv                   0                       # Class of executed instruction
system.cpu.op_class::SimdFloatMisc                  0                       # Class of executed instruction
system.cpu.op_class::SimdFloatMult                  0                       # Class of executed instruction
system.cpu.op_class::SimdFloatMultAcc               0                       # Class of executed instruction
system.cpu.op_class::SimdFloatSqrt                  0                       # Class of executed instruction
system.cpu.op_class::SimdReduceAdd                  0                       # Class of executed instruction
system.cpu.op_class::SimdReduceAlu                  0                       # Class of executed instruction
system.cpu.op_class::SimdReduceCmp                  0                       # Class of executed instruction
system.cpu.op_class::SimdFloatReduceAdd             0                       # Class of executed instruction
system.cpu.op_class::SimdFloatReduceCmp             0                       # Class of executed instruction
system.cpu.op_class::SimdAes                        0                       # Class of executed instruction
system.cpu.op_class::SimdAesMix                     0                       # Class of executed instruction
system.cpu.op_class::SimdSha1Hash                   0                       # Class of executed instruction
system.cpu.op_class::SimdSha1Hash2                  0                       # Class of executed instruction
system.cpu.op_class::SimdSha256Hash                 0                       # Class of executed instruction
system.cpu.op_class::SimdSha256Hash2                0                       # Class of executed instruction
system.cpu.op_class::SimdShaSigma2                  0                       # Class of executed instruction
system.cpu.op_class::SimdShaSigma3                  0                       # Class of executed instruction
system.cpu.op_class::SimdPredAlu                    0                       # Class of executed instruction
system.cpu.op_class::MemRead                        0                       # Class of executed instruction
system.cpu.op_class::MemWrite                       0                       # Class of executed instruction
system.cpu.op_class::FloatMemRead                   0                       # Class of executed instruction
system.cpu.op_class::FloatMemWrite                  0                       # Class of executed instruction
system.cpu.op_class::IprAccess                      0                       # Class of executed instruction
system.cpu.op_class::InstPrefetch                   0                       # Class of executed instruction
system.cpu.op_class::total                          0                       # Class of executed instruction
system.cpu.workload.numSyscalls                    44                       # Number of system calls
system.membus.snoop_filter.hit_multi_requests            0                       # Number of requests hitting in the snoop filter with multiple (>1) holders of the requested data.
system.membus.snoop_filter.hit_multi_snoops            0                       # Number of snoops hitting in the snoop filter with multiple (>1) holders of the requested data.
system.membus.snoop_filter.hit_single_requests        26853                       # Number of requests hitting in the snoop filter with a single holder of the requested data.
system.membus.snoop_filter.hit_single_snoops            0                       # Number of snoops hitting in the snoop filter with a single holder of the requested data.
system.membus.snoop_filter.tot_requests         55608                       # Total number of requests made to the snoop filter.
system.membus.snoop_filter.tot_snoops               0                       # Total number of snoops made to the snoop filter.
system.switch_cpus.cc_regfile_reads           8019845                       # number of cc regfile reads
system.switch_cpus.cc_regfile_writes          4915432                       # number of cc regfile writes
system.switch_cpus.committedInsts             5628199                       # Number of Instructions Simulated
system.switch_cpus.committedOps              10786153                       # Number of Ops (including micro ops) Simulated
system.switch_cpus.cpi                       1.596896                       # CPI: Cycles Per Instruction
system.switch_cpus.cpi_total                 1.596896                       # CPI: Total CPI of All Threads
system.switch_cpus.fp_regfile_reads            821070                       # number of floating regfile reads
system.switch_cpus.fp_regfile_writes           468084                       # number of floating regfile writes
system.switch_cpus.idleCycles                  577540                       # Total number of cycles that the CPU has spent unscheduled due to idling
system.switch_cpus.iew.branchMispredicts       323804                       # Number of branch mispredicts detected at execute
system.switch_cpus.iew.exec_branches          1549140                       # Number of branches executed
system.switch_cpus.iew.exec_nop                     0                       # number of nop insts executed
system.switch_cpus.iew.exec_rate             1.804277                       # Inst execution rate
system.switch_cpus.iew.exec_refs              3108039                       # number of memory reference insts executed
system.switch_cpus.iew.exec_stores             959502                       # Number of stores executed
system.switch_cpus.iew.exec_swp                     0                       # number of swp insts executed
system.switch_cpus.iew.iewBlockCycles         1569578                       # Number of cycles IEW is blocking
system.switch_cpus.iew.iewDispLoadInsts       2524731                       # Number of dispatched load instructions
system.switch_cpus.iew.iewDispNonSpecInsts         2538                       # Number of dispatched non-speculative instructions
system.switch_cpus.iew.iewDispSquashedInsts        41551                       # Number of squashed instructions skipped by dispatch
system.switch_cpus.iew.iewDispStoreInsts      1177313                       # Number of dispatched store instructions
system.switch_cpus.iew.iewDispatchedInsts     19292249                       # Number of instructions dispatched to IQ
system.switch_cpus.iew.iewExecLoadInsts       2148537                       # Number of load instructions executed
system.switch_cpus.iew.iewExecSquashedInsts       605686                       # Number of squashed instructions skipped in execute
system.switch_cpus.iew.iewExecutedInsts      16216210                       # Number of executed instructions
system.switch_cpus.iew.iewIQFullEvents          10249                       # Number of times the IQ has become full, causing a stall
system.switch_cpus.iew.iewIdleCycles                0                       # Number of cycles IEW is idle
system.switch_cpus.iew.iewLSQFullEvents        139487                       # Number of times the LSQ has become full, causing a stall
system.switch_cpus.iew.iewSquashCycles         258322                       # Number of cycles IEW is squashing
system.switch_cpus.iew.iewUnblockCycles        153409                       # Number of cycles IEW is unblocking
system.switch_cpus.iew.memOrderViolationEvents          863                       # Number of memory order violations
system.switch_cpus.iew.predictedNotTakenIncorrect       214065                       # Number of branches that were predicted not taken incorrectly
system.switch_cpus.iew.predictedTakenIncorrect       109739                       # Number of branches that were predicted taken incorrectly
system.switch_cpus.iew.wb_consumers          19147085                       # num instructions consuming a value
system.switch_cpus.iew.wb_count              15876629                       # cumulative count of insts written-back
system.switch_cpus.iew.wb_fanout             0.596204                       # average fanout of values written-back
system.switch_cpus.iew.wb_producers          11415564                       # num instructions producing a value
system.switch_cpus.iew.wb_rate               1.766494                       # insts written-back per cycle
system.switch_cpus.iew.wb_sent               16018979                       # cumulative count of insts sent to commit
system.switch_cpus.int_regfile_reads         22474998                       # number of integer regfile reads
system.switch_cpus.int_regfile_writes        12580358                       # number of integer regfile writes
system.switch_cpus.ipc                       0.626215                       # IPC: Instructions Per Cycle
system.switch_cpus.ipc_total                 0.626215                       # IPC: Total IPC of All Threads
system.switch_cpus.iq.FU_type_0::No_OpClass       626288      3.72%      3.72% # Type of FU issued
system.switch_cpus.iq.FU_type_0::IntAlu      12488256     74.24%     77.96% # Type of FU issued
system.switch_cpus.iq.FU_type_0::IntMult        12153      0.07%     78.03% # Type of FU issued
system.switch_cpus.iq.FU_type_0::IntDiv         31818      0.19%     78.22% # Type of FU issued
system.switch_cpus.iq.FU_type_0::FloatAdd        24452      0.15%     78.37% # Type of FU issued
system.switch_cpus.iq.FU_type_0::FloatCmp            0      0.00%     78.37% # Type of FU issued
system.switch_cpus.iq.FU_type_0::FloatCvt         1850      0.01%     78.38% # Type of FU issued
system.switch_cpus.iq.FU_type_0::FloatMult            0      0.00%     78.38% # Type of FU issued
system.switch_cpus.iq.FU_type_0::FloatMultAcc            0      0.00%     78.38% # Type of FU issued
system.switch_cpus.iq.FU_type_0::FloatDiv            0      0.00%     78.38% # Type of FU issued
system.switch_cpus.iq.FU_type_0::FloatMisc            0      0.00%     78.38% # Type of FU issued
system.switch_cpus.iq.FU_type_0::FloatSqrt            0      0.00%     78.38% # Type of FU issued
system.switch_cpus.iq.FU_type_0::SimdAdd        11653      0.07%     78.45% # Type of FU issued
system.switch_cpus.iq.FU_type_0::SimdAddAcc            0      0.00%     78.45% # Type of FU issued
system.switch_cpus.iq.FU_type_0::SimdAlu       104683      0.62%     79.07% # Type of FU issued
system.switch_cpus.iq.FU_type_0::SimdCmp         5043      0.03%     79.10% # Type of FU issued
system.switch_cpus.iq.FU_type_0::SimdCvt        89181      0.53%     79.63% # Type of FU issued
system.switch_cpus.iq.FU_type_0::SimdMisc       114498      0.68%     80.31% # Type of FU issued
system.switch_cpus.iq.FU_type_0::SimdMult            0      0.00%     80.31% # Type of FU issued
system.switch_cpus.iq.FU_type_0::SimdMultAcc            0      0.00%     80.31% # Type of FU issued
system.switch_cpus.iq.FU_type_0::SimdShift         8410      0.05%     80.36% # Type of FU issued
system.switch_cpus.iq.FU_type_0::SimdShiftAcc            0      0.00%     80.36% # Type of FU issued
system.switch_cpus.iq.FU_type_0::SimdDiv            0      0.00%     80.36% # Type of FU issued
system.switch_cpus.iq.FU_type_0::SimdSqrt            0      0.00%     80.36% # Type of FU issued
system.switch_cpus.iq.FU_type_0::SimdFloatAdd           15      0.00%     80.36% # Type of FU issued
system.switch_cpus.iq.FU_type_0::SimdFloatAlu            0      0.00%     80.36% # Type of FU issued
system.switch_cpus.iq.FU_type_0::SimdFloatCmp            0      0.00%     80.36% # Type of FU issued
system.switch_cpus.iq.FU_type_0::SimdFloatCvt           63      0.00%     80.36% # Type of FU issued
system.switch_cpus.iq.FU_type_0::SimdFloatDiv           32      0.00%     80.36% # Type of FU issued
system.switch_cpus.iq.FU_type_0::SimdFloatMisc            0      0.00%     80.36% # Type of FU issued
system.switch_cpus.iq.FU_type_0::SimdFloatMult           15      0.00%     80.36% # Type of FU issued
system.switch_cpus.iq.FU_type_0::SimdFloatMultAcc            0      0.00%     80.36% # Type of FU issued
system.switch_cpus.iq.FU_type_0::SimdFloatSqrt            0      0.00%     80.36% # Type of FU issued
system.switch_cpus.iq.FU_type_0::SimdReduceAdd            0      0.00%     80.36% # Type of FU issued
system.switch_cpus.iq.FU_type_0::SimdReduceAlu            0      0.00%     80.36% # Type of FU issued
system.switch_cpus.iq.FU_type_0::SimdReduceCmp            0      0.00%     80.36% # Type of FU issued
system.switch_cpus.iq.FU_type_0::SimdFloatReduceAdd            0      0.00%     80.36% # Type of FU issued
system.switch_cpus.iq.FU_type_0::SimdFloatReduceCmp            0      0.00%     80.36% # Type of FU issued
system.switch_cpus.iq.FU_type_0::SimdAes            0      0.00%     80.36% # Type of FU issued
system.switch_cpus.iq.FU_type_0::SimdAesMix            0      0.00%     80.36% # Type of FU issued
system.switch_cpus.iq.FU_type_0::SimdSha1Hash            0      0.00%     80.36% # Type of FU issued
system.switch_cpus.iq.FU_type_0::SimdSha1Hash2            0      0.00%     80.36% # Type of FU issued
system.switch_cpus.iq.FU_type_0::SimdSha256Hash            0      0.00%     80.36% # Type of FU issued
system.switch_cpus.iq.FU_type_0::SimdSha256Hash2            0      0.00%     80.36% # Type of FU issued
system.switch_cpus.iq.FU_type_0::SimdShaSigma2            0      0.00%     80.36% # Type of FU issued
system.switch_cpus.iq.FU_type_0::SimdShaSigma3            0      0.00%     80.36% # Type of FU issued
system.switch_cpus.iq.FU_type_0::SimdPredAlu            0      0.00%     80.36% # Type of FU issued
system.switch_cpus.iq.FU_type_0::MemRead      2087120     12.41%     92.77% # Type of FU issued
system.switch_cpus.iq.FU_type_0::MemWrite       940222      5.59%     98.36% # Type of FU issued
system.switch_cpus.iq.FU_type_0::FloatMemRead       205865      1.22%     99.58% # Type of FU issued
system.switch_cpus.iq.FU_type_0::FloatMemWrite        70279      0.42%    100.00% # Type of FU issued
system.switch_cpus.iq.FU_type_0::IprAccess            0      0.00%    100.00% # Type of FU issued
system.switch_cpus.iq.FU_type_0::InstPrefetch            0      0.00%    100.00% # Type of FU issued
system.switch_cpus.iq.FU_type_0::total       16821896                       # Type of FU issued
system.switch_cpus.iq.fp_alu_accesses          697463                       # Number of floating point alu accesses
system.switch_cpus.iq.fp_inst_queue_reads      1379008                       # Number of floating instruction queue reads
system.switch_cpus.iq.fp_inst_queue_wakeup_accesses       578268                       # Number of floating instruction queue wakeup accesses
system.switch_cpus.iq.fp_inst_queue_writes      1292860                       # Number of floating instruction queue writes
system.switch_cpus.iq.fu_busy_cnt              260265                       # FU busy when requested
system.switch_cpus.iq.fu_busy_rate           0.015472                       # FU busy rate (busy events/executed inst)
system.switch_cpus.iq.fu_full::No_OpClass            0      0.00%      0.00% # attempts to use FU when none available
system.switch_cpus.iq.fu_full::IntAlu          193174     74.22%     74.22% # attempts to use FU when none available
system.switch_cpus.iq.fu_full::IntMult              0      0.00%     74.22% # attempts to use FU when none available
system.switch_cpus.iq.fu_full::IntDiv               0      0.00%     74.22% # attempts to use FU when none available
system.switch_cpus.iq.fu_full::FloatAdd             0      0.00%     74.22% # attempts to use FU when none available
system.switch_cpus.iq.fu_full::FloatCmp             0      0.00%     74.22% # attempts to use FU when none available
system.switch_cpus.iq.fu_full::FloatCvt             2      0.00%     74.22% # attempts to use FU when none available
system.switch_cpus.iq.fu_full::FloatMult            0      0.00%     74.22% # attempts to use FU when none available
system.switch_cpus.iq.fu_full::FloatMultAcc            0      0.00%     74.22% # attempts to use FU when none available
system.switch_cpus.iq.fu_full::FloatDiv             0      0.00%     74.22% # attempts to use FU when none available
system.switch_cpus.iq.fu_full::FloatMisc            0      0.00%     74.22% # attempts to use FU when none available
system.switch_cpus.iq.fu_full::FloatSqrt            0      0.00%     74.22% # attempts to use FU when none available
system.switch_cpus.iq.fu_full::SimdAdd             10      0.00%     74.23% # attempts to use FU when none available
system.switch_cpus.iq.fu_full::SimdAddAcc            0      0.00%     74.23% # attempts to use FU when none available
system.switch_cpus.iq.fu_full::SimdAlu           4985      1.92%     76.14% # attempts to use FU when none available
system.switch_cpus.iq.fu_full::SimdCmp             46      0.02%     76.16% # attempts to use FU when none available
system.switch_cpus.iq.fu_full::SimdCvt           2533      0.97%     77.13% # attempts to use FU when none available
system.switch_cpus.iq.fu_full::SimdMisc          2805      1.08%     78.21% # attempts to use FU when none available
system.switch_cpus.iq.fu_full::SimdMult             0      0.00%     78.21% # attempts to use FU when none available
system.switch_cpus.iq.fu_full::SimdMultAcc            0      0.00%     78.21% # attempts to use FU when none available
system.switch_cpus.iq.fu_full::SimdShift          185      0.07%     78.28% # attempts to use FU when none available
system.switch_cpus.iq.fu_full::SimdShiftAcc            0      0.00%     78.28% # attempts to use FU when none available
system.switch_cpus.iq.fu_full::SimdDiv              0      0.00%     78.28% # attempts to use FU when none available
system.switch_cpus.iq.fu_full::SimdSqrt             0      0.00%     78.28% # attempts to use FU when none available
system.switch_cpus.iq.fu_full::SimdFloatAdd            0      0.00%     78.28% # attempts to use FU when none available
system.switch_cpus.iq.fu_full::SimdFloatAlu            0      0.00%     78.28% # attempts to use FU when none available
system.switch_cpus.iq.fu_full::SimdFloatCmp            0      0.00%     78.28% # attempts to use FU when none available
system.switch_cpus.iq.fu_full::SimdFloatCvt            0      0.00%     78.28% # attempts to use FU when none available
system.switch_cpus.iq.fu_full::SimdFloatDiv            0      0.00%     78.28% # attempts to use FU when none available
system.switch_cpus.iq.fu_full::SimdFloatMisc            0      0.00%     78.28% # attempts to use FU when none available
system.switch_cpus.iq.fu_full::SimdFloatMult            0      0.00%     78.28% # attempts to use FU when none available
system.switch_cpus.iq.fu_full::SimdFloatMultAcc            0      0.00%     78.28% # attempts to use FU when none available
system.switch_cpus.iq.fu_full::SimdFloatSqrt            0      0.00%     78.28% # attempts to use FU when none available
system.switch_cpus.iq.fu_full::SimdReduceAdd            0      0.00%     78.28% # attempts to use FU when none available
system.switch_cpus.iq.fu_full::SimdReduceAlu            0      0.00%     78.28% # attempts to use FU when none available
system.switch_cpus.iq.fu_full::SimdReduceCmp            0      0.00%     78.28% # attempts to use FU when none available
system.switch_cpus.iq.fu_full::SimdFloatReduceAdd            0      0.00%     78.28% # attempts to use FU when none available
system.switch_cpus.iq.fu_full::SimdFloatReduceCmp            0      0.00%     78.28% # attempts to use FU when none available
system.switch_cpus.iq.fu_full::SimdAes              0      0.00%     78.28% # attempts to use FU when none available
system.switch_cpus.iq.fu_full::SimdAesMix            0      0.00%     78.28% # attempts to use FU when none available
system.switch_cpus.iq.fu_full::SimdSha1Hash            0      0.00%     78.28% # attempts to use FU when none available
system.switch_cpus.iq.fu_full::SimdSha1Hash2            0      0.00%     78.28% # attempts to use FU when none available
system.switch_cpus.iq.fu_full::SimdSha256Hash            0      0.00%     78.28% # attempts to use FU when none available
system.switch_cpus.iq.fu_full::SimdSha256Hash2            0      0.00%     78.28% # attempts to use FU when none available
system.switch_cpus.iq.fu_full::SimdShaSigma2            0      0.00%     78.28% # attempts to use FU when none available
system.switch_cpus.iq.fu_full::SimdShaSigma3            0      0.00%     78.28% # attempts to use FU when none available
system.switch_cpus.iq.fu_full::SimdPredAlu            0      0.00%     78.28% # attempts to use FU when none available
system.switch_cpus.iq.fu_full::MemRead          22331      8.58%     86.86% # attempts to use FU when none available
system.switch_cpus.iq.fu_full::MemWrite         13621      5.23%     92.10% # attempts to use FU when none available
system.switch_cpus.iq.fu_full::FloatMemRead        16084      6.18%     98.28% # attempts to use FU when none available
system.switch_cpus.iq.fu_full::FloatMemWrite         4489      1.72%    100.00% # attempts to use FU when none available
system.switch_cpus.iq.fu_full::IprAccess            0      0.00%    100.00% # attempts to use FU when none available
system.switch_cpus.iq.fu_full::InstPrefetch            0      0.00%    100.00% # attempts to use FU when none available
system.switch_cpus.iq.int_alu_accesses       15758410                       # Number of integer alu accesses
system.switch_cpus.iq.int_inst_queue_reads     41001666                       # Number of integer instruction queue reads
system.switch_cpus.iq.int_inst_queue_wakeup_accesses     15298361                       # Number of integer instruction queue wakeup accesses
system.switch_cpus.iq.int_inst_queue_writes     26506147                       # Number of integer instruction queue writes
system.switch_cpus.iq.iqInstsAdded           19286088                       # Number of instructions added to the IQ (excludes non-spec)
system.switch_cpus.iq.iqInstsIssued          16821896                       # Number of instructions issued
system.switch_cpus.iq.iqNonSpecInstsAdded         6161                       # Number of non-speculative instructions added to the IQ
system.switch_cpus.iq.iqSquashedInstsExamined      8506090                       # Number of squashed instructions iterated over during squash; mainly for profiling
system.switch_cpus.iq.iqSquashedInstsIssued        66508                       # Number of squashed instructions issued
system.switch_cpus.iq.iqSquashedNonSpecRemoved         5007                       # Number of squashed non-spec instructions that were removed
system.switch_cpus.iq.iqSquashedOperandsExamined     10618165                       # Number of squashed operands that are examined and possibly removed from graph
system.switch_cpus.iq.issued_per_cycle::samples      8410109                       # Number of insts issued each cycle
system.switch_cpus.iq.issued_per_cycle::mean     2.000200                       # Number of insts issued each cycle
system.switch_cpus.iq.issued_per_cycle::stdev     2.458014                       # Number of insts issued each cycle
system.switch_cpus.iq.issued_per_cycle::underflows            0      0.00%      0.00% # Number of insts issued each cycle
system.switch_cpus.iq.issued_per_cycle::0      4162007     49.49%     49.49% # Number of insts issued each cycle
system.switch_cpus.iq.issued_per_cycle::1       591967      7.04%     56.53% # Number of insts issued each cycle
system.switch_cpus.iq.issued_per_cycle::2       648978      7.72%     64.24% # Number of insts issued each cycle
system.switch_cpus.iq.issued_per_cycle::3       661396      7.86%     72.11% # Number of insts issued each cycle
system.switch_cpus.iq.issued_per_cycle::4       640711      7.62%     79.73% # Number of insts issued each cycle
system.switch_cpus.iq.issued_per_cycle::5       613070      7.29%     87.02% # Number of insts issued each cycle
system.switch_cpus.iq.issued_per_cycle::6       549026      6.53%     93.54% # Number of insts issued each cycle
system.switch_cpus.iq.issued_per_cycle::7       318197      3.78%     97.33% # Number of insts issued each cycle
system.switch_cpus.iq.issued_per_cycle::8       224757      2.67%    100.00% # Number of insts issued each cycle
system.switch_cpus.iq.issued_per_cycle::overflows            0      0.00%    100.00% # Number of insts issued each cycle
system.switch_cpus.iq.issued_per_cycle::min_value            0                       # Number of insts issued each cycle
system.switch_cpus.iq.issued_per_cycle::max_value            8                       # Number of insts issued each cycle
system.switch_cpus.iq.issued_per_cycle::total      8410109                       # Number of insts issued each cycle
system.switch_cpus.iq.rate                   1.871668                       # Inst issue rate
system.switch_cpus.iq.vec_alu_accesses              0                       # Number of vector alu accesses
system.switch_cpus.iq.vec_inst_queue_reads            0                       # Number of vector instruction queue reads
system.switch_cpus.iq.vec_inst_queue_wakeup_accesses            0                       # Number of vector instruction queue wakeup accesses
system.switch_cpus.iq.vec_inst_queue_writes            0                       # Number of vector instruction queue writes
system.switch_cpus.memDep0.conflictingLoads        63562                       # Number of conflicting loads.
system.switch_cpus.memDep0.conflictingStores        66917                       # Number of conflicting stores.
system.switch_cpus.memDep0.insertedLoads      2524731                       # Number of loads inserted to the mem dependence unit.
system.switch_cpus.memDep0.insertedStores      1177313                       # Number of stores inserted to the mem dependence unit.
system.switch_cpus.misc_regfile_reads         6640144                       # number of misc regfile reads
system.switch_cpus.misc_regfile_writes            999                       # number of misc regfile writes
system.switch_cpus.numCycles                  8987649                       # number of cpu cycles simulated
system.switch_cpus.numWorkItemsCompleted            0                       # number of work items this cpu completed
system.switch_cpus.numWorkItemsStarted              0                       # number of work items this cpu started
system.switch_cpus.timesIdled                    8493                       # Number of times that the entire CPU went into an idle state and unscheduled itself
system.tol2bus.snoop_filter.hit_multi_requests          154                       # Number of requests hitting in the snoop filter with multiple (>1) holders of the requested data.
system.tol2bus.snoop_filter.hit_multi_snoops            0                       # Number of snoops hitting in the snoop filter with multiple (>1) holders of the requested data.
system.tol2bus.snoop_filter.hit_single_requests        58726                       # Number of requests hitting in the snoop filter with a single holder of the requested data.
system.tol2bus.snoop_filter.hit_single_snoops         1290                       # Number of snoops hitting in the snoop filter with a single holder of the requested data.
system.tol2bus.snoop_filter.tot_requests       117832                       # Total number of requests made to the snoop filter.
system.tol2bus.snoop_filter.tot_snoops           1290                       # Total number of snoops made to the snoop filter.
system.clk_domain.clock                          1000                       # Clock period in ticks
system.cpu.branchPred.lookups                       0                       # Number of BP lookups
system.cpu.branchPred.condPredicted                 0                       # Number of conditional branches predicted
system.cpu.branchPred.condIncorrect                 0                       # Number of conditional branches incorrect
system.cpu.branchPred.BTBLookups                    0                       # Number of BTB lookups
system.cpu.branchPred.BTBHits                       0                       # Number of BTB hits
system.cpu.branchPred.BTBHitPct                   nan                       # BTB Hit Percentage
system.cpu.branchPred.RASUsed                       0                       # Number of times the RAS was used to get a target.
system.cpu.branchPred.RASIncorrect                  0                       # Number of incorrect RAS predictions.
system.cpu.branchPred.indirectLookups               0                       # Number of indirect predictor lookups.
system.cpu.branchPred.indirectHits                  0                       # Number of indirect target hits.
system.cpu.branchPred.indirectMisses                0                       # Number of indirect misses.
system.cpu.branchPred.indirectMispredicted            0                       # Number of mispredicted indirect branches.
system.cpu.dcache.demand_hits::.switch_cpus.data      2573496                       # number of demand (read+write) hits
system.cpu.dcache.demand_hits::total          2573496                       # number of demand (read+write) hits
system.cpu.dcache.overall_hits::.switch_cpus.data      2576411                       # number of overall hits
system.cpu.dcache.overall_hits::total         2576411                       # number of overall hits
system.cpu.dcache.demand_misses::.switch_cpus.data        98335                       # number of demand (read+write) misses
system.cpu.dcache.demand_misses::total          98335                       # number of demand (read+write) misses
system.cpu.dcache.overall_misses::.switch_cpus.data        98400                       # number of overall misses
system.cpu.dcache.overall_misses::total         98400                       # number of overall misses
system.cpu.dcache.demand_miss_latency::.switch_cpus.data   5789044496                       # number of demand (read+write) miss cycles
system.cpu.dcache.demand_miss_latency::total   5789044496                       # number of demand (read+write) miss cycles
system.cpu.dcache.overall_miss_latency::.switch_cpus.data   5789044496                       # number of overall miss cycles
system.cpu.dcache.overall_miss_latency::total   5789044496                       # number of overall miss cycles
system.cpu.dcache.demand_accesses::.switch_cpus.data      2671831                       # number of demand (read+write) accesses
system.cpu.dcache.demand_accesses::total      2671831                       # number of demand (read+write) accesses
system.cpu.dcache.overall_accesses::.switch_cpus.data      2674811                       # number of overall (read+write) accesses
system.cpu.dcache.overall_accesses::total      2674811                       # number of overall (read+write) accesses
system.cpu.dcache.demand_miss_rate::.switch_cpus.data     0.036804                       # miss rate for demand accesses
system.cpu.dcache.demand_miss_rate::total     0.036804                       # miss rate for demand accesses
system.cpu.dcache.overall_miss_rate::.switch_cpus.data     0.036788                       # miss rate for overall accesses
system.cpu.dcache.overall_miss_rate::total     0.036788                       # miss rate for overall accesses
system.cpu.dcache.demand_avg_miss_latency::.switch_cpus.data 58870.641135                       # average overall miss latency
system.cpu.dcache.demand_avg_miss_latency::total 58870.641135                       # average overall miss latency
system.cpu.dcache.overall_avg_miss_latency::.switch_cpus.data 58831.753008                       # average overall miss latency
system.cpu.dcache.overall_avg_miss_latency::total 58831.753008                       # average overall miss latency
system.cpu.dcache.blocked_cycles::no_mshrs       177661                       # number of cycles access was blocked
system.cpu.dcache.blocked_cycles::no_targets          511                       # number of cycles access was blocked
system.cpu.dcache.blocked::no_mshrs              3933                       # number of cycles access was blocked
system.cpu.dcache.blocked::no_targets               7                       # number of cycles access was blocked
system.cpu.dcache.avg_blocked_cycles::no_mshrs    45.171879                       # average number of cycles each access was blocked
system.cpu.dcache.avg_blocked_cycles::no_targets           73                       # average number of cycles each access was blocked
system.cpu.dcache.writebacks::.writebacks        14257                       # number of writebacks
system.cpu.dcache.writebacks::total             14257                       # number of writebacks
system.cpu.dcache.demand_mshr_hits::.switch_cpus.data        65343                       # number of demand (read+write) MSHR hits
system.cpu.dcache.demand_mshr_hits::total        65343                       # number of demand (read+write) MSHR hits
system.cpu.dcache.overall_mshr_hits::.switch_cpus.data        65343                       # number of overall MSHR hits
system.cpu.dcache.overall_mshr_hits::total        65343                       # number of overall MSHR hits
system.cpu.dcache.demand_mshr_misses::.switch_cpus.data        32992                       # number of demand (read+write) MSHR misses
system.cpu.dcache.demand_mshr_misses::total        32992                       # number of demand (read+write) MSHR misses
system.cpu.dcache.overall_mshr_misses::.switch_cpus.data        33018                       # number of overall MSHR misses
system.cpu.dcache.overall_mshr_misses::total        33018                       # number of overall MSHR misses
system.cpu.dcache.demand_mshr_miss_latency::.switch_cpus.data   1920331996                       # number of demand (read+write) MSHR miss cycles
system.cpu.dcache.demand_mshr_miss_latency::total   1920331996                       # number of demand (read+write) MSHR miss cycles
system.cpu.dcache.overall_mshr_miss_latency::.switch_cpus.data   1921815996                       # number of overall MSHR miss cycles
system.cpu.dcache.overall_mshr_miss_latency::total   1921815996                       # number of overall MSHR miss cycles
system.cpu.dcache.demand_mshr_miss_rate::.switch_cpus.data     0.012348                       # mshr miss rate for demand accesses
system.cpu.dcache.demand_mshr_miss_rate::total     0.012348                       # mshr miss rate for demand accesses
system.cpu.dcache.overall_mshr_miss_rate::.switch_cpus.data     0.012344                       # mshr miss rate for overall accesses
system.cpu.dcache.overall_mshr_miss_rate::total     0.012344                       # mshr miss rate for overall accesses
system.cpu.dcache.demand_avg_mshr_miss_latency::.switch_cpus.data 58205.989210                       # average overall mshr miss latency
system.cpu.dcache.demand_avg_mshr_miss_latency::total 58205.989210                       # average overall mshr miss latency
system.cpu.dcache.overall_avg_mshr_miss_latency::.switch_cpus.data 58205.100127                       # average overall mshr miss latency
system.cpu.dcache.overall_avg_mshr_miss_latency::total 58205.100127                       # average overall mshr miss latency
system.cpu.dcache.replacements                  32994                       # number of replacements
system.cpu.dcache.ReadReq_hits::.switch_cpus.data      1893336                       # number of ReadReq hits
system.cpu.dcache.ReadReq_hits::total         1893336                       # number of ReadReq hits
system.cpu.dcache.ReadReq_misses::.switch_cpus.data        90387                       # number of ReadReq misses
system.cpu.dcache.ReadReq_misses::total         90387                       # number of ReadReq misses
system.cpu.dcache.ReadReq_miss_latency::.switch_cpus.data   5235195000                       # number of ReadReq miss cycles
system.cpu.dcache.ReadReq_miss_latency::total   5235195000                       # number of ReadReq miss cycles
system.cpu.dcache.ReadReq_accesses::.switch_cpus.data      1983723                       # number of ReadReq accesses(hits+misses)
system.cpu.dcache.ReadReq_accesses::total      1983723                       # number of ReadReq accesses(hits+misses)
system.cpu.dcache.ReadReq_miss_rate::.switch_cpus.data     0.045564                       # miss rate for ReadReq accesses
system.cpu.dcache.ReadReq_miss_rate::total     0.045564                       # miss rate for ReadReq accesses
system.cpu.dcache.ReadReq_avg_miss_latency::.switch_cpus.data 57919.778287                       # average ReadReq miss latency
system.cpu.dcache.ReadReq_avg_miss_latency::total 57919.778287                       # average ReadReq miss latency
system.cpu.dcache.ReadReq_mshr_hits::.switch_cpus.data        65331                       # number of ReadReq MSHR hits
system.cpu.dcache.ReadReq_mshr_hits::total        65331                       # number of ReadReq MSHR hits
system.cpu.dcache.ReadReq_mshr_misses::.switch_cpus.data        25056                       # number of ReadReq MSHR misses
system.cpu.dcache.ReadReq_mshr_misses::total        25056                       # number of ReadReq MSHR misses
system.cpu.dcache.ReadReq_mshr_miss_latency::.switch_cpus.data   1374842000                       # number of ReadReq MSHR miss cycles
system.cpu.dcache.ReadReq_mshr_miss_latency::total   1374842000                       # number of ReadReq MSHR miss cycles
system.cpu.dcache.ReadReq_mshr_miss_rate::.switch_cpus.data     0.012631                       # mshr miss rate for ReadReq accesses
system.cpu.dcache.ReadReq_mshr_miss_rate::total     0.012631                       # mshr miss rate for ReadReq accesses
system.cpu.dcache.ReadReq_avg_mshr_miss_latency::.switch_cpus.data 54870.769476                       # average ReadReq mshr miss latency
system.cpu.dcache.ReadReq_avg_mshr_miss_latency::total 54870.769476                       # average ReadReq mshr miss latency
system.cpu.dcache.WriteReq_hits::.switch_cpus.data       680160                       # number of WriteReq hits
system.cpu.dcache.WriteReq_hits::total         680160                       # number of WriteReq hits
system.cpu.dcache.WriteReq_misses::.switch_cpus.data         7948                       # number of WriteReq misses
system.cpu.dcache.WriteReq_misses::total         7948                       # number of WriteReq misses
system.cpu.dcache.WriteReq_miss_latency::.switch_cpus.data    553849496                       # number of WriteReq miss cycles
system.cpu.dcache.WriteReq_miss_latency::total    553849496                       # number of WriteReq miss cycles
system.cpu.dcache.WriteReq_accesses::.switch_cpus.data       688108                       # number of WriteReq accesses(hits+misses)
system.cpu.dcache.WriteReq_accesses::total       688108                       # number of WriteReq accesses(hits+misses)
system.cpu.dcache.WriteReq_miss_rate::.switch_cpus.data     0.011551                       # miss rate for WriteReq accesses
system.cpu.dcache.WriteReq_miss_rate::total     0.011551                       # miss rate for WriteReq accesses
system.cpu.dcache.WriteReq_avg_miss_latency::.switch_cpus.data 69684.133870                       # average WriteReq miss latency
system.cpu.dcache.WriteReq_avg_miss_latency::total 69684.133870                       # average WriteReq miss latency
system.cpu.dcache.WriteReq_mshr_hits::.switch_cpus.data           12                       # number of WriteReq MSHR hits
system.cpu.dcache.WriteReq_mshr_hits::total           12                       # number of WriteReq MSHR hits
system.cpu.dcache.WriteReq_mshr_misses::.switch_cpus.data         7936                       # number of WriteReq MSHR misses
system.cpu.dcache.WriteReq_mshr_misses::total         7936                       # number of WriteReq MSHR misses
system.cpu.dcache.WriteReq_mshr_miss_latency::.switch_cpus.data    545489996                       # number of WriteReq MSHR miss cycles
system.cpu.dcache.WriteReq_mshr_miss_latency::total    545489996                       # number of WriteReq MSHR miss cycles
system.cpu.dcache.WriteReq_mshr_miss_rate::.switch_cpus.data     0.011533                       # mshr miss rate for WriteReq accesses
system.cpu.dcache.WriteReq_mshr_miss_rate::total     0.011533                       # mshr miss rate for WriteReq accesses
system.cpu.dcache.WriteReq_avg_mshr_miss_latency::.switch_cpus.data 68736.138609                       # average WriteReq mshr miss latency
system.cpu.dcache.WriteReq_avg_mshr_miss_latency::total 68736.138609                       # average WriteReq mshr miss latency
system.cpu.dcache.SoftPFReq_hits::.switch_cpus.data         2915                       # number of SoftPFReq hits
system.cpu.dcache.SoftPFReq_hits::total          2915                       # number of SoftPFReq hits
system.cpu.dcache.SoftPFReq_misses::.switch_cpus.data           65                       # number of SoftPFReq misses
system.cpu.dcache.SoftPFReq_misses::total           65                       # number of SoftPFReq misses
system.cpu.dcache.SoftPFReq_accesses::.switch_cpus.data         2980                       # number of SoftPFReq accesses(hits+misses)
system.cpu.dcache.SoftPFReq_accesses::total         2980                       # number of SoftPFReq accesses(hits+misses)
system.cpu.dcache.SoftPFReq_miss_rate::.switch_cpus.data     0.021812                       # miss rate for SoftPFReq accesses
system.cpu.dcache.SoftPFReq_miss_rate::total     0.021812                       # miss rate for SoftPFReq accesses
system.cpu.dcache.SoftPFReq_mshr_misses::.switch_cpus.data           26                       # number of SoftPFReq MSHR misses
system.cpu.dcache.SoftPFReq_mshr_misses::total           26                       # number of SoftPFReq MSHR misses
system.cpu.dcache.SoftPFReq_mshr_miss_latency::.switch_cpus.data      1484000                       # number of SoftPFReq MSHR miss cycles
system.cpu.dcache.SoftPFReq_mshr_miss_latency::total      1484000                       # number of SoftPFReq MSHR miss cycles
system.cpu.dcache.SoftPFReq_mshr_miss_rate::.switch_cpus.data     0.008725                       # mshr miss rate for SoftPFReq accesses
system.cpu.dcache.SoftPFReq_mshr_miss_rate::total     0.008725                       # mshr miss rate for SoftPFReq accesses
system.cpu.dcache.SoftPFReq_avg_mshr_miss_latency::.switch_cpus.data 57076.923077                       # average SoftPFReq mshr miss latency
system.cpu.dcache.SoftPFReq_avg_mshr_miss_latency::total 57076.923077                       # average SoftPFReq mshr miss latency
system.cpu.dcache.power_state.pwrStateResidencyTicks::UNDEFINED   5544372000                       # Cumulative time (in ticks) in various power states
system.cpu.dcache.tags.tagsinuse                 1024                       # Cycle average of tags in use
system.cpu.dcache.tags.total_refs             2824645                       # Total number of references to valid blocks.
system.cpu.dcache.tags.sampled_refs             34018                       # Sample count of references to valid blocks.
system.cpu.dcache.tags.avg_refs             83.033835                       # Average number of references to valid blocks.
system.cpu.dcache.tags.warmup_cycle                 0                       # Cycle when the warmup percentage was hit.
system.cpu.dcache.tags.occ_blocks::.cpu.data    24.582895                       # Average occupied blocks per requestor
system.cpu.dcache.tags.occ_blocks::.switch_cpus.data   999.417105                       # Average occupied blocks per requestor
system.cpu.dcache.tags.occ_percent::.cpu.data     0.024007                       # Average percentage of cache occupancy
system.cpu.dcache.tags.occ_percent::.switch_cpus.data     0.975993                       # Average percentage of cache occupancy
system.cpu.dcache.tags.occ_percent::total            1                       # Average percentage of cache occupancy
system.cpu.dcache.tags.occ_task_id_blocks::1024         1024                       # Occupied blocks per task id
system.cpu.dcache.tags.age_task_id_blocks_1024::0           86                       # Occupied blocks per task id
system.cpu.dcache.tags.age_task_id_blocks_1024::1          742                       # Occupied blocks per task id
system.cpu.dcache.tags.age_task_id_blocks_1024::2          188                       # Occupied blocks per task id
system.cpu.dcache.tags.age_task_id_blocks_1024::3            8                       # Occupied blocks per task id
system.cpu.dcache.tags.occ_task_id_percent::1024            1                       # Percentage of cache occupancy per task id
system.cpu.dcache.tags.tag_accesses           5382616                       # Number of tag accesses
system.cpu.dcache.tags.data_accesses          5382616                       # Number of data accesses
system.cpu.dcache.tags.power_state.pwrStateResidencyTicks::UNDEFINED   5544372000                       # Cumulative time (in ticks) in various power states
system.cpu.dtb.rdAccesses                           0                       # TLB accesses on read requests
system.cpu.dtb.wrAccesses                           0                       # TLB accesses on write requests
system.cpu.dtb.rdMisses                             0                       # TLB misses on read requests
system.cpu.dtb.wrMisses                             0                       # TLB misses on write requests
system.cpu.dtb.walker.power_state.pwrStateResidencyTicks::UNDEFINED   5544372000                       # Cumulative time (in ticks) in various power states
system.cpu.dtb_walker_cache.blocked_cycles::no_mshrs            0                       # number of cycles access was blocked
system.cpu.dtb_walker_cache.blocked_cycles::no_targets            0                       # number of cycles access was blocked
system.cpu.dtb_walker_cache.blocked::no_mshrs            0                       # number of cycles access was blocked
system.cpu.dtb_walker_cache.blocked::no_targets            0                       # number of cycles access was blocked
system.cpu.dtb_walker_cache.avg_blocked_cycles::no_mshrs          nan                       # average number of cycles each access was blocked
system.cpu.dtb_walker_cache.avg_blocked_cycles::no_targets          nan                       # average number of cycles each access was blocked
system.cpu.dtb_walker_cache.replacements            0                       # number of replacements
system.cpu.dtb_walker_cache.power_state.pwrStateResidencyTicks::UNDEFINED   5544372000                       # Cumulative time (in ticks) in various power states
system.cpu.dtb_walker_cache.tags.tagsinuse            0                       # Cycle average of tags in use
system.cpu.dtb_walker_cache.tags.total_refs            0                       # Total number of references to valid blocks.
system.cpu.dtb_walker_cache.tags.sampled_refs            0                       # Sample count of references to valid blocks.
system.cpu.dtb_walker_cache.tags.avg_refs          nan                       # Average number of references to valid blocks.
system.cpu.dtb_walker_cache.tags.warmup_cycle            0                       # Cycle when the warmup percentage was hit.
system.cpu.dtb_walker_cache.tags.tag_accesses            0                       # Number of tag accesses
system.cpu.dtb_walker_cache.tags.data_accesses            0                       # Number of data accesses
system.cpu.dtb_walker_cache.tags.power_state.pwrStateResidencyTicks::UNDEFINED   5544372000                       # Cumulative time (in ticks) in various power states
system.cpu.icache.demand_hits::.switch_cpus.inst      1784338                       # number of demand (read+write) hits
system.cpu.icache.demand_hits::total          1784338                       # number of demand (read+write) hits
system.cpu.icache.overall_hits::.switch_cpus.inst      1784338                       # number of overall hits
system.cpu.icache.overall_hits::total         1784338                       # number of overall hits
system.cpu.icache.demand_misses::.switch_cpus.inst        31032                       # number of demand (read+write) misses
system.cpu.icache.demand_misses::total          31032                       # number of demand (read+write) misses
system.cpu.icache.overall_misses::.switch_cpus.inst        31032                       # number of overall misses
system.cpu.icache.overall_misses::total         31032                       # number of overall misses
system.cpu.icache.demand_miss_latency::.switch_cpus.inst   1028574498                       # number of demand (read+write) miss cycles
system.cpu.icache.demand_miss_latency::total   1028574498                       # number of demand (read+write) miss cycles
system.cpu.icache.overall_miss_latency::.switch_cpus.inst   1028574498                       # number of overall miss cycles
system.cpu.icache.overall_miss_latency::total   1028574498                       # number of overall miss cycles
system.cpu.icache.demand_accesses::.switch_cpus.inst      1815370                       # number of demand (read+write) accesses
system.cpu.icache.demand_accesses::total      1815370                       # number of demand (read+write) accesses
system.cpu.icache.overall_accesses::.switch_cpus.inst      1815370                       # number of overall (read+write) accesses
system.cpu.icache.overall_accesses::total      1815370                       # number of overall (read+write) accesses
system.cpu.icache.demand_miss_rate::.switch_cpus.inst     0.017094                       # miss rate for demand accesses
system.cpu.icache.demand_miss_rate::total     0.017094                       # miss rate for demand accesses
system.cpu.icache.overall_miss_rate::.switch_cpus.inst     0.017094                       # miss rate for overall accesses
system.cpu.icache.overall_miss_rate::total     0.017094                       # miss rate for overall accesses
system.cpu.icache.demand_avg_miss_latency::.switch_cpus.inst 33145.607695                       # average overall miss latency
system.cpu.icache.demand_avg_miss_latency::total 33145.607695                       # average overall miss latency
system.cpu.icache.overall_avg_miss_latency::.switch_cpus.inst 33145.607695                       # average overall miss latency
system.cpu.icache.overall_avg_miss_latency::total 33145.607695                       # average overall miss latency
system.cpu.icache.blocked_cycles::no_mshrs         2138                       # number of cycles access was blocked
system.cpu.icache.blocked_cycles::no_targets            0                       # number of cycles access was blocked
system.cpu.icache.blocked::no_mshrs                62                       # number of cycles access was blocked
system.cpu.icache.blocked::no_targets               0                       # number of cycles access was blocked
system.cpu.icache.avg_blocked_cycles::no_mshrs    34.483871                       # average number of cycles each access was blocked
system.cpu.icache.avg_blocked_cycles::no_targets          nan                       # average number of cycles each access was blocked
system.cpu.icache.writebacks::.writebacks        25721                       # number of writebacks
system.cpu.icache.writebacks::total             25721                       # number of writebacks
system.cpu.icache.demand_mshr_hits::.switch_cpus.inst         4933                       # number of demand (read+write) MSHR hits
system.cpu.icache.demand_mshr_hits::total         4933                       # number of demand (read+write) MSHR hits
system.cpu.icache.overall_mshr_hits::.switch_cpus.inst         4933                       # number of overall MSHR hits
system.cpu.icache.overall_mshr_hits::total         4933                       # number of overall MSHR hits
system.cpu.icache.demand_mshr_misses::.switch_cpus.inst        26099                       # number of demand (read+write) MSHR misses
system.cpu.icache.demand_mshr_misses::total        26099                       # number of demand (read+write) MSHR misses
system.cpu.icache.overall_mshr_misses::.switch_cpus.inst        26099                       # number of overall MSHR misses
system.cpu.icache.overall_mshr_misses::total        26099                       # number of overall MSHR misses
system.cpu.icache.demand_mshr_miss_latency::.switch_cpus.inst    826689499                       # number of demand (read+write) MSHR miss cycles
system.cpu.icache.demand_mshr_miss_latency::total    826689499                       # number of demand (read+write) MSHR miss cycles
system.cpu.icache.overall_mshr_miss_latency::.switch_cpus.inst    826689499                       # number of overall MSHR miss cycles
system.cpu.icache.overall_mshr_miss_latency::total    826689499                       # number of overall MSHR miss cycles
system.cpu.icache.demand_mshr_miss_rate::.switch_cpus.inst     0.014377                       # mshr miss rate for demand accesses
system.cpu.icache.demand_mshr_miss_rate::total     0.014377                       # mshr miss rate for demand accesses
system.cpu.icache.overall_mshr_miss_rate::.switch_cpus.inst     0.014377                       # mshr miss rate for overall accesses
system.cpu.icache.overall_mshr_miss_rate::total     0.014377                       # mshr miss rate for overall accesses
system.cpu.icache.demand_avg_mshr_miss_latency::.switch_cpus.inst 31675.140772                       # average overall mshr miss latency
system.cpu.icache.demand_avg_mshr_miss_latency::total 31675.140772                       # average overall mshr miss latency
system.cpu.icache.overall_avg_mshr_miss_latency::.switch_cpus.inst 31675.140772                       # average overall mshr miss latency
system.cpu.icache.overall_avg_mshr_miss_latency::total 31675.140772                       # average overall mshr miss latency
system.cpu.icache.replacements                  25721                       # number of replacements
system.cpu.icache.ReadReq_hits::.switch_cpus.inst      1784338                       # number of ReadReq hits
system.cpu.icache.ReadReq_hits::total         1784338                       # number of ReadReq hits
system.cpu.icache.ReadReq_misses::.switch_cpus.inst        31032                       # number of ReadReq misses
system.cpu.icache.ReadReq_misses::total         31032                       # number of ReadReq misses
system.cpu.icache.ReadReq_miss_latency::.switch_cpus.inst   1028574498                       # number of ReadReq miss cycles
system.cpu.icache.ReadReq_miss_latency::total   1028574498                       # number of ReadReq miss cycles
system.cpu.icache.ReadReq_accesses::.switch_cpus.inst      1815370                       # number of ReadReq accesses(hits+misses)
system.cpu.icache.ReadReq_accesses::total      1815370                       # number of ReadReq accesses(hits+misses)
system.cpu.icache.ReadReq_miss_rate::.switch_cpus.inst     0.017094                       # miss rate for ReadReq accesses
system.cpu.icache.ReadReq_miss_rate::total     0.017094                       # miss rate for ReadReq accesses
system.cpu.icache.ReadReq_avg_miss_latency::.switch_cpus.inst 33145.607695                       # average ReadReq miss latency
system.cpu.icache.ReadReq_avg_miss_latency::total 33145.607695                       # average ReadReq miss latency
system.cpu.icache.ReadReq_mshr_hits::.switch_cpus.inst         4933                       # number of ReadReq MSHR hits
system.cpu.icache.ReadReq_mshr_hits::total         4933                       # number of ReadReq MSHR hits
system.cpu.icache.ReadReq_mshr_misses::.switch_cpus.inst        26099                       # number of ReadReq MSHR misses
system.cpu.icache.ReadReq_mshr_misses::total        26099                       # number of ReadReq MSHR misses
system.cpu.icache.ReadReq_mshr_miss_latency::.switch_cpus.inst    826689499                       # number of ReadReq MSHR miss cycles
system.cpu.icache.ReadReq_mshr_miss_latency::total    826689499                       # number of ReadReq MSHR miss cycles
system.cpu.icache.ReadReq_mshr_miss_rate::.switch_cpus.inst     0.014377                       # mshr miss rate for ReadReq accesses
system.cpu.icache.ReadReq_mshr_miss_rate::total     0.014377                       # mshr miss rate for ReadReq accesses
system.cpu.icache.ReadReq_avg_mshr_miss_latency::.switch_cpus.inst 31675.140772                       # average ReadReq mshr miss latency
system.cpu.icache.ReadReq_avg_mshr_miss_latency::total 31675.140772                       # average ReadReq mshr miss latency
system.cpu.icache.power_state.pwrStateResidencyTicks::UNDEFINED   5544372000                       # Cumulative time (in ticks) in various power states
system.cpu.icache.tags.tagsinuse           943.549194                       # Cycle average of tags in use
system.cpu.icache.tags.total_refs             3144006                       # Total number of references to valid blocks.
system.cpu.icache.tags.sampled_refs             26774                       # Sample count of references to valid blocks.
system.cpu.icache.tags.avg_refs            117.427579                       # Average number of references to valid blocks.
system.cpu.icache.tags.warmup_cycle                 0                       # Cycle when the warmup percentage was hit.
system.cpu.icache.tags.occ_blocks::.cpu.inst   193.254524                       # Average occupied blocks per requestor
system.cpu.icache.tags.occ_blocks::.switch_cpus.inst   750.294671                       # Average occupied blocks per requestor
system.cpu.icache.tags.occ_percent::.cpu.inst     0.188725                       # Average percentage of cache occupancy
system.cpu.icache.tags.occ_percent::.switch_cpus.inst     0.732710                       # Average percentage of cache occupancy
system.cpu.icache.tags.occ_percent::total     0.921435                       # Average percentage of cache occupancy
system.cpu.icache.tags.occ_task_id_blocks::1024         1021                       # Occupied blocks per task id
system.cpu.icache.tags.age_task_id_blocks_1024::0           81                       # Occupied blocks per task id
system.cpu.icache.tags.age_task_id_blocks_1024::1          218                       # Occupied blocks per task id
system.cpu.icache.tags.age_task_id_blocks_1024::2          698                       # Occupied blocks per task id
system.cpu.icache.tags.age_task_id_blocks_1024::3           24                       # Occupied blocks per task id
system.cpu.icache.tags.occ_task_id_percent::1024     0.997070                       # Percentage of cache occupancy per task id
system.cpu.icache.tags.tag_accesses           3656838                       # Number of tag accesses
system.cpu.icache.tags.data_accesses          3656838                       # Number of data accesses
system.cpu.icache.tags.power_state.pwrStateResidencyTicks::UNDEFINED   5544372000                       # Cumulative time (in ticks) in various power states
system.cpu.interrupts.clk_domain.clock           8000                       # Clock period in ticks
system.cpu.itb.rdAccesses                           0                       # TLB accesses on read requests
system.cpu.itb.wrAccesses                           0                       # TLB accesses on write requests
system.cpu.itb.rdMisses                             0                       # TLB misses on read requests
system.cpu.itb.wrMisses                             0                       # TLB misses on write requests
system.cpu.itb.walker.power_state.pwrStateResidencyTicks::UNDEFINED   5544372000                       # Cumulative time (in ticks) in various power states
system.cpu.itb_walker_cache.blocked_cycles::no_mshrs            0                       # number of cycles access was blocked
system.cpu.itb_walker_cache.blocked_cycles::no_targets            0                       # number of cycles access was blocked
system.cpu.itb_walker_cache.blocked::no_mshrs            0                       # number of cycles access was blocked
system.cpu.itb_walker_cache.blocked::no_targets            0                       # number of cycles access was blocked
system.cpu.itb_walker_cache.avg_blocked_cycles::no_mshrs          nan                       # average number of cycles each access was blocked
system.cpu.itb_walker_cache.avg_blocked_cycles::no_targets          nan                       # average number of cycles each access was blocked
system.cpu.itb_walker_cache.replacements            0                       # number of replacements
system.cpu.itb_walker_cache.power_state.pwrStateResidencyTicks::UNDEFINED   5544372000                       # Cumulative time (in ticks) in various power states
system.cpu.itb_walker_cache.tags.tagsinuse            0                       # Cycle average of tags in use
system.cpu.itb_walker_cache.tags.total_refs            0                       # Total number of references to valid blocks.
system.cpu.itb_walker_cache.tags.sampled_refs            0                       # Sample count of references to valid blocks.
system.cpu.itb_walker_cache.tags.avg_refs          nan                       # Average number of references to valid blocks.
system.cpu.itb_walker_cache.tags.warmup_cycle            0                       # Cycle when the warmup percentage was hit.
system.cpu.itb_walker_cache.tags.tag_accesses            0                       # Number of tag accesses
system.cpu.itb_walker_cache.tags.data_accesses            0                       # Number of data accesses
system.cpu.itb_walker_cache.tags.power_state.pwrStateResidencyTicks::UNDEFINED   5544372000                       # Cumulative time (in ticks) in various power states
system.cpu.power_state.pwrStateResidencyTicks::OFF   4493824500                       # Cumulative time (in ticks) in various power states
system.cpu.thread_0.numInsts                        0                       # Number of Instructions committed
system.cpu.thread_0.numOps                          0                       # Number of Ops committed
system.cpu.thread_0.numMemRefs                      0                       # Number of Memory References
system.cpu_clk_domain.clock                       500                       # Clock period in ticks
system.cpu_voltage_domain.voltage                   1                       # Voltage in Volts
system.l2.demand_hits::.switch_cpus.inst        18836                       # number of demand (read+write) hits
system.l2.demand_hits::.switch_cpus.data        11435                       # number of demand (read+write) hits
system.l2.demand_hits::total                    30271                       # number of demand (read+write) hits
system.l2.overall_hits::.switch_cpus.inst        18836                       # number of overall hits
system.l2.overall_hits::.switch_cpus.data        11435                       # number of overall hits
system.l2.overall_hits::total                   30271                       # number of overall hits
system.l2.demand_misses::.switch_cpus.inst         7205                       # number of demand (read+write) misses
system.l2.demand_misses::.switch_cpus.data        21559                       # number of demand (read+write) misses
system.l2.demand_misses::total                  28764                       # number of demand (read+write) misses
system.l2.overall_misses::.switch_cpus.inst         7205                       # number of overall misses
system.l2.overall_misses::.switch_cpus.data        21559                       # number of overall misses
system.l2.overall_misses::total                 28764                       # number of overall misses
system.l2.demand_miss_latency::.switch_cpus.inst    588232000                       # number of demand (read+write) miss cycles
system.l2.demand_miss_latency::.switch_cpus.data   1750448500                       # number of demand (read+write) miss cycles
system.l2.demand_miss_latency::total       2338680500                       # number of demand (read+write) miss cycles
system.l2.overall_miss_latency::.switch_cpus.inst    588232000                       # number of overall miss cycles
system.l2.overall_miss_latency::.switch_cpus.data   1750448500                       # number of overall miss cycles
system.l2.overall_miss_latency::total      2338680500                       # number of overall miss cycles
system.l2.demand_accesses::.switch_cpus.inst        26041                       # number of demand (read+write) accesses
system.l2.demand_accesses::.switch_cpus.data        32994                       # number of demand (read+write) accesses
system.l2.demand_accesses::total                59035                       # number of demand (read+write) accesses
system.l2.overall_accesses::.switch_cpus.inst        26041                       # number of overall (read+write) accesses
system.l2.overall_accesses::.switch_cpus.data        32994                       # number of overall (read+write) accesses
system.l2.overall_accesses::total               59035                       # number of overall (read+write) accesses
system.l2.demand_miss_rate::.switch_cpus.inst     0.276679                       # miss rate for demand accesses
system.l2.demand_miss_rate::.switch_cpus.data     0.653422                       # miss rate for demand accesses
system.l2.demand_miss_rate::total            0.487236                       # miss rate for demand accesses
system.l2.overall_miss_rate::.switch_cpus.inst     0.276679                       # miss rate for overall accesses
system.l2.overall_miss_rate::.switch_cpus.data     0.653422                       # miss rate for overall accesses
system.l2.overall_miss_rate::total           0.487236                       # miss rate for overall accesses
system.l2.demand_avg_miss_latency::.switch_cpus.inst 81642.192922                       # average overall miss latency
system.l2.demand_avg_miss_latency::.switch_cpus.data 81193.399508                       # average overall miss latency
system.l2.demand_avg_miss_latency::total 81305.816298                       # average overall miss latency
system.l2.overall_avg_miss_latency::.switch_cpus.inst 81642.192922                       # average overall miss latency
system.l2.overall_avg_miss_latency::.switch_cpus.data 81193.399508                       # average overall miss latency
system.l2.overall_avg_miss_latency::total 81305.816298                       # average overall miss latency
system.l2.blocked_cycles::no_mshrs                  0                       # number of cycles access was blocked
system.l2.blocked_cycles::no_targets                0                       # number of cycles access was blocked
system.l2.blocked::no_mshrs                         0                       # number of cycles access was blocked
system.l2.blocked::no_targets                       0                       # number of cycles access was blocked
system.l2.avg_blocked_cycles::no_mshrs            nan                       # average number of cycles each access was blocked
system.l2.avg_blocked_cycles::no_targets          nan                       # average number of cycles each access was blocked
system.l2.writebacks::.writebacks                6468                       # number of writebacks
system.l2.writebacks::total                      6468                       # number of writebacks
system.l2.demand_mshr_hits::.switch_cpus.inst            1                       # number of demand (read+write) MSHR hits
system.l2.demand_mshr_hits::.switch_cpus.data            2                       # number of demand (read+write) MSHR hits
system.l2.demand_mshr_hits::total                   3                       # number of demand (read+write) MSHR hits
system.l2.overall_mshr_hits::.switch_cpus.inst            1                       # number of overall MSHR hits
system.l2.overall_mshr_hits::.switch_cpus.data            2                       # number of overall MSHR hits
system.l2.overall_mshr_hits::total                  3                       # number of overall MSHR hits
system.l2.demand_mshr_misses::.switch_cpus.inst         7204                       # number of demand (read+write) MSHR misses
system.l2.demand_mshr_misses::.switch_cpus.data        21557                       # number of demand (read+write) MSHR misses
system.l2.demand_mshr_misses::total             28761                       # number of demand (read+write) MSHR misses
system.l2.overall_mshr_misses::.switch_cpus.inst         7204                       # number of overall MSHR misses
system.l2.overall_mshr_misses::.switch_cpus.data        21557                       # number of overall MSHR misses
system.l2.overall_mshr_misses::total            28761                       # number of overall MSHR misses
system.l2.demand_mshr_miss_latency::.switch_cpus.inst    516119500                       # number of demand (read+write) MSHR miss cycles
system.l2.demand_mshr_miss_latency::.switch_cpus.data   1534730500                       # number of demand (read+write) MSHR miss cycles
system.l2.demand_mshr_miss_latency::total   2050850000                       # number of demand (read+write) MSHR miss cycles
system.l2.overall_mshr_miss_latency::.switch_cpus.inst    516119500                       # number of overall MSHR miss cycles
system.l2.overall_mshr_miss_latency::.switch_cpus.data   1534730500                       # number of overall MSHR miss cycles
system.l2.overall_mshr_miss_latency::total   2050850000                       # number of overall MSHR miss cycles
system.l2.demand_mshr_miss_rate::.switch_cpus.inst     0.276641                       # mshr miss rate for demand accesses
system.l2.demand_mshr_miss_rate::.switch_cpus.data     0.653361                       # mshr miss rate for demand accesses
system.l2.demand_mshr_miss_rate::total       0.487186                       # mshr miss rate for demand accesses
system.l2.overall_mshr_miss_rate::.switch_cpus.inst     0.276641                       # mshr miss rate for overall accesses
system.l2.overall_mshr_miss_rate::.switch_cpus.data     0.653361                       # mshr miss rate for overall accesses
system.l2.overall_mshr_miss_rate::total      0.487186                       # mshr miss rate for overall accesses
system.l2.demand_avg_mshr_miss_latency::.switch_cpus.inst 71643.461966                       # average overall mshr miss latency
system.l2.demand_avg_mshr_miss_latency::.switch_cpus.data 71194.066892                       # average overall mshr miss latency
system.l2.demand_avg_mshr_miss_latency::total 71306.630507                       # average overall mshr miss latency
system.l2.overall_avg_mshr_miss_latency::.switch_cpus.inst 71643.461966                       # average overall mshr miss latency
system.l2.overall_avg_mshr_miss_latency::.switch_cpus.data 71194.066892                       # average overall mshr miss latency
system.l2.overall_avg_mshr_miss_latency::total 71306.630507                       # average overall mshr miss latency
system.l2.replacements                          28047                       # number of replacements
system.l2.WritebackDirty_hits::.writebacks        14257                       # number of WritebackDirty hits
system.l2.WritebackDirty_hits::total            14257                       # number of WritebackDirty hits
system.l2.WritebackDirty_accesses::.writebacks        14257                       # number of WritebackDirty accesses(hits+misses)
system.l2.WritebackDirty_accesses::total        14257                       # number of WritebackDirty accesses(hits+misses)
system.l2.WritebackClean_hits::.writebacks        25686                       # number of WritebackClean hits
system.l2.WritebackClean_hits::total            25686                       # number of WritebackClean hits
system.l2.WritebackClean_accesses::.writebacks        25686                       # number of WritebackClean accesses(hits+misses)
system.l2.WritebackClean_accesses::total        25686                       # number of WritebackClean accesses(hits+misses)
system.l2.CleanEvict_mshr_misses::.writebacks           48                       # number of CleanEvict MSHR misses
system.l2.CleanEvict_mshr_misses::total            48                       # number of CleanEvict MSHR misses
system.l2.CleanEvict_mshr_miss_rate::.writebacks          inf                       # mshr miss rate for CleanEvict accesses
[...]
system.switch_cpus.commit.committedInstType_0::SimdMisc       101351      0.94%     81.63% # Class of committed instruction
system.switch_cpus.commit.committedInstType_0::SimdMult            0      0.00%     81.63% # Class of committed instruction
system.switch_cpus.commit.committedInstType_0::SimdMultAcc            0      0.00%     81.63% # Class of committed instruction
system.switch_cpus.commit.committedInstType_0::SimdShift         2717      0.03%     81.66% # Class of committed instruction
system.switch_cpus.commit.committedInstType_0::SimdShiftAcc            0      0.00%     81.66% # Class of committed instruction
system.switch_cpus.commit.committedInstType_0::SimdDiv            0      0.00%     81.66% # Class of committed instruction
system.switch_cpus.commit.committedInstType_0::SimdSqrt            0      0.00%     81.66% # Class of committed instruction
system.switch_cpus.commit.committedInstType_0::SimdFloatAdd           11      0.00%     81.66% # Class of committed instruction
system.switch_cpus.commit.committedInstType_0::SimdFloatAlu            0      0.00%     81.66% # Class of committed instruction
system.switch_cpus.commit.committedInstType_0::SimdFloatCmp            0      0.00%     81.66% # Class of committed instruction
system.switch_cpus.commit.committedInstType_0::SimdFloatCvt           44      0.00%     81.66% # Class of committed instruction
system.switch_cpus.commit.committedInstType_0::SimdFloatDiv           30      0.00%     81.66% # Class of committed instruction
system.switch_cpus.commit.committedInstType_0::SimdFloatMisc            0      0.00%     81.66% # Class of committed instruction
system.switch_cpus.commit.committedInstType_0::SimdFloatMult            8      0.00%     81.66% # Class of committed instruction
system.switch_cpus.commit.committedInstType_0::SimdFloatMultAcc            0      0.00%     81.66% # Class of committed instruction
system.switch_cpus.commit.committedInstType_0::SimdFloatSqrt            0      0.00%     81.66% # Class of committed instruction
system.switch_cpus.commit.committedInstType_0::SimdReduceAdd            0      0.00%     81.66% # Class of committed instruction
system.switch_cpus.commit.committedInstType_0::SimdReduceAlu            0      0.00%     81.66% # Class of committed instruction
system.switch_cpus.commit.committedInstType_0::SimdReduceCmp            0      0.00%     81.66% # Class of committed instruction
system.switch_cpus.commit.committedInstType_0::SimdFloatReduceAdd            0      0.00%     81.66% # Class of committed instruction
system.switch_cpus.commit.committedInstType_0::SimdFloatReduceCmp            0      0.00%     81.66% # Class of committed instruction
system.switch_cpus.commit.committedInstType_0::SimdAes            0      0.00%     81.66% # Class of committed instruction
system.switch_cpus.commit.committedInstType_0::SimdAesMix            0      0.00%     81.66% # Class of committed instruction
system.switch_cpus.commit.committedInstType_0::SimdSha1Hash            0      0.00%     81.66% # Class of committed instruction
system.switch_cpus.commit.committedInstType_0::SimdSha1Hash2            0      0.00%     81.66% # Class of committed instruction
system.switch_cpus.commit.committedInstType_0::SimdSha256Hash            0      0.00%     81.66% # Class of committed instruction
system.switch_cpus.commit.committedInstType_0::SimdSha256Hash2            0      0.00%     81.66% # Class of committed instruction
system.switch_cpus.commit.committedInstType_0::SimdShaSigma2            0      0.00%     81.66% # Class of committed instruction
system.switch_cpus.commit.committedInstType_0::SimdShaSigma3            0      0.00%     81.66% # Class of committed instruction
system.switch_cpus.commit.committedInstType_0::SimdPredAlu            0      0.00%     81.66% # Class of committed instruction
system.switch_cpus.commit.committedInstType_0::MemRead      1198571     11.11%     92.77% # Class of committed instruction
system.switch_cpus.commit.committedInstType_0::MemWrite       645149      5.98%     98.75% # Class of committed instruction
system.switch_cpus.commit.committedInstType_0::FloatMemRead        92311      0.86%     99.61% # Class of committed instruction
system.switch_cpus.commit.committedInstType_0::FloatMemWrite        42292      0.39%    100.00% # Class of committed instruction
system.switch_cpus.commit.committedInstType_0::IprAccess            0      0.00%    100.00% # Class of committed instruction
system.switch_cpus.commit.committedInstType_0::InstPrefetch            0      0.00%    100.00% # Class of committed instruction
system.switch_cpus.commit.committedInstType_0::total     10786153                       # Class of committed instruction
system.switch_cpus.commit.commitEligibleSamples       509657                       # number cycles where commit BW limit reached
system.switch_cpus.decode.idleCycles          2109405                       # Number of cycles decode is idle
system.switch_cpus.decode.blockedCycles       2731254                       # Number of cycles decode is blocked
system.switch_cpus.decode.runCycles           2960233                       # Number of cycles decode is running
system.switch_cpus.decode.unblockCycles        350883                       # Number of cycles decode is unblocking
system.switch_cpus.decode.squashCycles         258322                       # Number of cycles decode is squashing
system.switch_cpus.decode.branchResolved       869959                       # Number of times decode resolved a  branch
system.switch_cpus.decode.branchMispred         22743                       # Number of times decode detected a branch misprediction
system.switch_cpus.decode.decodedInsts       22335990                       # Number of instructions handled by decode
system.switch_cpus.decode.squashedInsts        105154                       # Number of squashed instructions handled by decode
system.switch_cpus.dtb.rdAccesses             2145155                       # TLB accesses on read requests
system.switch_cpus.dtb.wrAccesses              960224                       # TLB accesses on write requests
system.switch_cpus.dtb.rdMisses                  3710                       # TLB misses on read requests
system.switch_cpus.dtb.wrMisses                  1393                       # TLB misses on write requests
system.switch_cpus.dtb.walker.power_state.pwrStateResidencyTicks::UNDEFINED   5544372000                       # Cumulative time (in ticks) in various power states
system.switch_cpus.fetch.icacheStallCycles      2413766                       # Number of cycles fetch is stalled on an Icache miss
system.switch_cpus.fetch.insts               12653476                       # Number of instructions fetch has processed
system.switch_cpus.fetch.branches             2693276                       # Number of branches that fetch encountered
system.switch_cpus.fetch.predictedBranches      1165439                       # Number of branches that fetch has predicted taken
system.switch_cpus.fetch.cycles               5600464                       # Number of cycles fetch has run and was not squashing or blocked
system.switch_cpus.fetch.squashCycles          560852                       # Number of cycles fetch has spent squashing
system.switch_cpus.fetch.tlbCycles                 25                       # Number of cycles fetch has spent waiting for tlb
system.switch_cpus.fetch.miscStallCycles        12697                       # Number of cycles fetch has spent waiting on interrupts,or bad addresses, or out of MSHRs
system.switch_cpus.fetch.pendingTrapStallCycles       102498                       # Number of stall cycles due to pending traps
system.switch_cpus.fetch.pendingQuiesceStallCycles           27                       # Number of stall cycles due to pending quiesce instructions
system.switch_cpus.fetch.icacheWaitRetryStallCycles          206                       # Number of stall cycles due to full MSHR
system.switch_cpus.fetch.cacheLines           1815373                       # Number of cache lines fetched
system.switch_cpus.fetch.icacheSquashes         80061                       # Number of outstanding Icache misses that were squashed
system.switch_cpus.fetch.tlbSquashes                5                       # Number of outstanding ITLB misses that were squashed
system.switch_cpus.fetch.nisnDist::samples      8410109                       # Number of instructions fetched each cycle (Total)
system.switch_cpus.fetch.nisnDist::mean      2.871393                       # Number of instructions fetched each cycle (Total)
system.switch_cpus.fetch.nisnDist::stdev     3.491452                       # Number of instructions fetched each cycle (Total)
system.switch_cpus.fetch.nisnDist::underflows            0      0.00%      0.00% # Number of instructions fetched each cycle (Total)
system.switch_cpus.fetch.nisnDist::0          4590747     54.59%     54.59% # Number of instructions fetched each cycle (Total)
system.switch_cpus.fetch.nisnDist::1           160290      1.91%     56.49% # Number of instructions fetched each cycle (Total)
system.switch_cpus.fetch.nisnDist::2           195130      2.32%     58.81% # Number of instructions fetched each cycle (Total)
system.switch_cpus.fetch.nisnDist::3           184762      2.20%     61.01% # Number of instructions fetched each cycle (Total)
system.switch_cpus.fetch.nisnDist::4           439557      5.23%     66.24% # Number of instructions fetched each cycle (Total)
system.switch_cpus.fetch.nisnDist::5           253967      3.02%     69.26% # Number of instructions fetched each cycle (Total)
system.switch_cpus.fetch.nisnDist::6           217605      2.59%     71.84% # Number of instructions fetched each cycle (Total)
system.switch_cpus.fetch.nisnDist::7           234205      2.78%     74.63% # Number of instructions fetched each cycle (Total)
system.switch_cpus.fetch.nisnDist::8          2133846     25.37%    100.00% # Number of instructions fetched each cycle (Total)
system.switch_cpus.fetch.nisnDist::overflows            0      0.00%    100.00% # Number of instructions fetched each cycle (Total)
system.switch_cpus.fetch.nisnDist::min_value            0                       # Number of instructions fetched each cycle (Total)
system.switch_cpus.fetch.nisnDist::max_value            8                       # Number of instructions fetched each cycle (Total)
system.switch_cpus.fetch.nisnDist::total      8410109                       # Number of instructions fetched each cycle (Total)
system.switch_cpus.fetch.branchRate          0.299664                       # Number of branch fetches per cycle
system.switch_cpus.fetch.rate                1.407874                       # Number of inst fetches per cycle
system.switch_cpus.itb.rdAccesses                   0                       # TLB accesses on read requests
system.switch_cpus.itb.wrAccesses             1834300                       # TLB accesses on write requests
system.switch_cpus.itb.rdMisses                     0                       # TLB misses on read requests
system.switch_cpus.itb.wrMisses                 20385                       # TLB misses on write requests
system.switch_cpus.itb.walker.power_state.pwrStateResidencyTicks::UNDEFINED   5544372000                       # Cumulative time (in ticks) in various power states
system.switch_cpus.lsq0.forwLoads              153217                       # Number of loads that had data forwarded from stores
system.switch_cpus.lsq0.squashedLoads         1233849                       # Number of loads squashed
system.switch_cpus.lsq0.ignoredResponses         2891                       # Number of memory responses ignored because the instruction is squashed
system.switch_cpus.lsq0.memOrderViolation          863                       # Number of memory ordering violations
system.switch_cpus.lsq0.squashedStores         489872                       # Number of stores squashed
system.switch_cpus.lsq0.rescheduledLoads         3196                       # Number of loads that were rescheduled
system.switch_cpus.lsq0.blockedByCache           3018                       # Number of times an access to memory failed due to the cache being blocked
system.switch_cpus.power_state.pwrStateResidencyTicks::OFF   5544372000                       # Cumulative time (in ticks) in various power states
system.switch_cpus.rename.squashCycles         258322                       # Number of cycles rename is squashing
system.switch_cpus.rename.idleCycles          2340109                       # Number of cycles rename is idle
system.switch_cpus.rename.blockCycles         2095549                       # Number of cycles rename is blocking
system.switch_cpus.rename.serializeStallCycles        15659                       # count of cycles rename stalledfor serializing inst
system.switch_cpus.rename.runCycles           3056958                       # Number of cycles rename is running
system.switch_cpus.rename.unblockCycles        643494                       # Number of cycles rename is unblocking
system.switch_cpus.rename.renamedInsts       21276625                       # Number of instructions processed by rename
system.switch_cpus.rename.ROBFullEvents         18637                       # Number of times rename has blocked due to ROB full
system.switch_cpus.rename.IQFullEvents         246683                       # Number of times rename has blocked due to IQ full
system.switch_cpus.rename.LQFullEvents          25765                       # Number of times rename has blocked due to LQ full
system.switch_cpus.rename.SQFullEvents         309859                       # Number of times rename has blocked due to SQ full
system.switch_cpus.rename.fullRegistersEvents          148                       # Number of times there has been no free registers
system.switch_cpus.rename.renamedOperands     23931110                       # Number of destination operands rename has renamed
system.switch_cpus.rename.lookups            52651670                       # Number of register rename lookups that rename has made
system.switch_cpus.rename.intLookups         30844600                       # Number of integer rename lookups
system.switch_cpus.rename.fpLookups           1335748                       # Number of floating rename lookups
system.switch_cpus.rename.committedMaps      12664975                       # Number of HB maps that are committed
system.switch_cpus.rename.undoneMaps         11266129                       # Number of HB maps that are undone due to squashing
system.switch_cpus.rename.serializing            1054                       # count of serializing insts renamed
system.switch_cpus.rename.tempSerializing         1050                       # count of temporary serializing insts renamed
system.switch_cpus.rename.skidInsts           1003549                       # count of insts added to the skid buffer
system.switch_cpus.rob.reads                 25918524                       # The number of ROB reads
system.switch_cpus.rob.writes                39771133                       # The number of ROB writes
system.switch_cpus.thread_0.numInsts          5628199                       # Number of Instructions committed
system.switch_cpus.thread_0.numOps           10786153                       # Number of Ops committed
system.switch_cpus.thread_0.numMemRefs              0                       # Number of Memory References
system.tol2bus.trans_dist::ReadResp             51180                       # Transaction distribution
system.tol2bus.trans_dist::WritebackDirty        20725                       # Transaction distribution
system.tol2bus.trans_dist::WritebackClean        25721                       # Transaction distribution
system.tol2bus.trans_dist::CleanEvict           40316                       # Transaction distribution
system.tol2bus.trans_dist::UpgradeReq              24                       # Transaction distribution
system.tol2bus.trans_dist::UpgradeResp             24                       # Transaction distribution
system.tol2bus.trans_dist::ReadExReq             7912                       # Transaction distribution
system.tol2bus.trans_dist::ReadExResp            7912                       # Transaction distribution
system.tol2bus.trans_dist::ReadCleanReq         26099                       # Transaction distribution
system.tol2bus.trans_dist::ReadSharedReq        25082                       # Transaction distribution
system.tol2bus.pkt_count_system.cpu.icache.mem_side_port::system.l2.cpu_side_port        77860                       # Packet count per connected requestor and responder (bytes)
system.tol2bus.pkt_count_system.cpu.dcache.mem_side_port::system.l2.cpu_side_port        99030                       # Packet count per connected requestor and responder (bytes)
system.tol2bus.pkt_count::total                176890                       # Packet count per connected requestor and responder (bytes)
system.tol2bus.pkt_size_system.cpu.icache.mem_side_port::system.l2.cpu_side_port      3312704                       # Cumulative packet size per connected requestor and responder (bytes)
system.tol2bus.pkt_size_system.cpu.dcache.mem_side_port::system.l2.cpu_side_port      3024064                       # Cumulative packet size per connected requestor and responder (bytes)
system.tol2bus.pkt_size::total                6336768                       # Cumulative packet size per connected requestor and responder (bytes)
system.tol2bus.snoops                           28105                       # Total snoops (count)
system.tol2bus.snoopTraffic                    417664                       # Total snoop traffic (bytes)
system.tol2bus.snoop_fanout::samples            87164                       # Request fanout histogram
system.tol2bus.snoop_fanout::mean            0.016670                       # Request fanout histogram
system.tol2bus.snoop_fanout::stdev           0.128031                       # Request fanout histogram
system.tol2bus.snoop_fanout::underflows             0      0.00%      0.00% # Request fanout histogram
system.tol2bus.snoop_fanout::0                  85711     98.33%     98.33% # Request fanout histogram
system.tol2bus.snoop_fanout::1                   1453      1.67%    100.00% # Request fanout histogram
system.tol2bus.snoop_fanout::2                      0      0.00%    100.00% # Request fanout histogram
system.tol2bus.snoop_fanout::3                      0      0.00%    100.00% # Request fanout histogram
system.tol2bus.snoop_fanout::4                      0      0.00%    100.00% # Request fanout histogram
system.tol2bus.snoop_fanout::overflows              0      0.00%    100.00% # Request fanout histogram
system.tol2bus.snoop_fanout::min_value              0                       # Request fanout histogram
system.tol2bus.snoop_fanout::max_value              1                       # Request fanout histogram
system.tol2bus.snoop_fanout::total              87164                       # Request fanout histogram
system.tol2bus.power_state.pwrStateResidencyTicks::UNDEFINED   5544372000                       # Cumulative time (in ticks) in various power states
system.tol2bus.reqLayer0.occupancy           98894000                       # Layer occupancy (ticks)
system.tol2bus.reqLayer0.utilization              2.2                       # Layer utilization (%)
system.tol2bus.respLayer0.occupancy          39155982                       # Layer occupancy (ticks)
system.tol2bus.respLayer0.utilization             0.9                       # Layer utilization (%)
system.tol2bus.respLayer1.occupancy          49510485                       # Layer occupancy (ticks)
system.tol2bus.respLayer1.utilization             1.1                       # Layer utilization (%)
system.voltage_domain.voltage                       1                       # Voltage in Volts

---------- End Simulation Statistics   ----------
