
---------- Begin Simulation Statistics ----------
final_tick                                 7743757000                       # Number of ticks from beginning of simulation (restored from checkpoints and never reset)
host_inst_rate                                 135282                       # Simulator instruction rate (inst/s)
host_mem_usage                                8687856                       # Number of bytes of host memory used
host_op_rate                                   254502                       # Simulator op (including micro ops) rate (op/s)
host_seconds                                    81.31                       # Real time elapsed on the host
host_tick_rate                               82074161                       # Simulator tick rate (ticks/s)
sim_freq                                 1000000000000                       # Frequency of simulated ticks
sim_insts                                    11000001                       # Number of instructions simulated
sim_ops                                      20693944                       # Number of ops (including micro ops) simulated
sim_seconds                                  0.006674                       # Number of seconds simulated
sim_ticks                                  6673587000                       # Number of ticks simulated
system.cpu.committedInsts                           0                       # Number of instructions committed
system.cpu.committedOps                             0                       # Number of ops (including micro ops) committed
system.cpu.idle_fraction                            0                       # Percentage of idle cycles
system.cpu.not_idle_fraction                        1                       # Percentage of non-idle cycles
system.cpu.numCycles                                0                       # number of cpu cycles simulated
system.cpu.numWorkItemsCompleted                    0                       # number of work items this cpu completed
system.cpu.numWorkItemsStarted                      0                       # number of work items this cpu started
system.cpu.num_busy_cycles                          0                       # Number of busy cycles
system.cpu.num_conditional_control_insts            0                       # number of instructions that are conditional controls
system.cpu.num_fp_alu_accesses                      0                       # Number of float alu accesses
system.cpu.num_fp_insts                             0                       # number of float instructions
system.cpu.num_fp_register_reads                    0                       # number of times the floating registers were read
system.cpu.num_fp_register_writes                   0                       # number of times the floating registers were written
system.cpu.num_func_calls                           0                       # number of times a function call or return occured
system.cpu.num_idle_cycles                          0                       # Number of idle cycles
system.cpu.num_int_alu_accesses                     0                       # Number of integer alu accesses
system.cpu.num_int_insts                            0                       # number of integer instructions
system.cpu.num_int_register_reads                   0                       # number of times the integer registers were read
system.cpu.num_int_register_writes                  0                       # number of times the integer registers were written
system.cpu.num_load_insts                           0                       # Number of load instructions
system.cpu.num_mem_refs                             0                       # number of memory refs
system.cpu.num_store_insts                          0                       # Number of store instructions
system.cpu.num_vec_alu_accesses                     0                       # Number of vector alu accesses
system.cpu.num_vec_insts                            0                       # number of vector instructions
system.cpu.num_vec_register_reads                   0                       # number of times the vector registers were read
system.cpu.num_vec_register_writes                  0                       # number of times the vector registers were written
system.cpu.op_class::No_OpClass                     0                       # Class of executed instruction
system.cpu.op_class::IntAlu                         0                       # Class of executed instruction
system.cpu.op_class::IntMult                        0                       # Class of executed instruction
system.cpu.op_class::IntDiv                         0                       # Class of executed instruction
system.cpu.op_class::FloatAdd                       0                       # Class of executed instruction
system.cpu.op_class::FloatCmp                       0                       # Class of executed instruction
system.cpu.op_class::FloatCvt                       0                       # Class of executed instruction
system.cpu.op_class::FloatMult                      0                       # Class of executed instruction
system.cpu.op_class::FloatMultAcc                   0                       # Class of executed instruction
system.cpu.op_class::FloatDiv                       0                       # Class of executed instruction
system.cpu.op_class::FloatMisc                      0                       # Class of executed instruction
system.cpu.op_class::FloatSqrt                      0                       # Class of executed instruction
system.cpu.op_class::SimdAdd                        0                       # Class of executed instruction
system.cpu.op_class::SimdAddAcc                     0                       # Class of executed instruction
system.cpu.op_class::SimdAlu                        0                       # Class of executed instruction
system.cpu.op_class::SimdCmp                        0                       # Class of executed instruction
system.cpu.op_class::SimdCvt                        0                       # Class of executed instruction
system.cpu.op_class::SimdMisc                       0                       # Class of executed instruction
system.cpu.op_class::SimdMult                       0                       # Class of executed instruction
system.cpu.op_class::SimdMultAcc                    0                       # Class of executed instruction
system.cpu.op_class::SimdShift                      0                       # Class of executed instruction
system.cpu.op_class::SimdShiftAcc                   0                       # Class of executed instruction
system.cpu.op_class::SimdDiv                        0                       # Class of executed instruction
system.cpu.op_class::SimdSqrt                       0                       # Class of executed instruction
system.cpu.op_class::SimdFloatAdd                   0                       # Class of executed instruction
system.cpu.op_class::SimdFloatAlu                   0                       # Class of executed instruction
system.cpu.op_class::SimdFloatCmp                   0                       # Class of executed instruction
system.cpu.op_class::SimdFloatCvt                   0                       # Class of executed instruction
system.cpu.op_class::SimdFloatDiv                   0                       # Class of executed instruction
system.cpu.op_class::SimdFloatMisc                  0                       # Class of executed instruction
system.cpu.op_class::SimdFloatMult                  0                       # Class of executed instruction
system.cpu.op_class::SimdFloatMultAcc               0                       # Class of executed instruction
system.cpu.op_class::SimdFloatSqrt                  0                       # Class of executed instruction
system.cpu.op_class::SimdReduceAdd                  0                       # Class of executed instruction
system.cpu.op_class::SimdReduceAlu                  0                       # Class of executed instruction
system.cpu.op_class::SimdReduceCmp                  0                       # Class of executed instruction
system.cpu.op_class::SimdFloatReduceAdd             0                       # Class of executed instruction
system.cpu.op_class::SimdFloatReduceCmp             0                       # Class of executed instruction
system.cpu.op_class::SimdAes                        0                       # Class of executed instruction
system.cpu.op_class::SimdAesMix                     0                       # Class of executed instruction
system.cpu.op_class::SimdSha1Hash                   0                       # Class of executed instruction
system.cpu.op_class::SimdSha1Hash2                  0                       # Class of executed instruction
system.cpu.op_class::SimdSha256Hash                 0                       # Class of executed instruction
system.cpu.op_class::SimdSha256Hash2                0                       # Class of executed instruction
system.cpu.op_class::SimdShaSigma2                  0                       # Class of executed instruction
system.cpu.op_class::SimdShaSigma3                  0                       # Class of executed instruction
system.cpu.op_class::SimdPredAlu                    0                       # Class of executed instruction
system.cpu.op_class::MemRead                        0                       # Class of executed instruction
system.cpu.op_class::MemWrite                       0                       # Class of executed instruction
system.cpu.op_class::FloatMemRead                   0                       # Class of executed instruction
system.cpu.op_class::FloatMemWrite                  0                       # Class of executed instruction
system.cpu.op_class::IprAccess                      0                       # Class of executed instruction
system.cpu.op_class::InstPrefetch                   0                       # Class of executed instruction
system.cpu.op_class::total                          0                       # Class of executed instruction
system.cpu.workload.numSyscalls                     8                       # Number of system calls
system.membus.snoop_filter.hit_multi_requests            0                       # Number of requests hitting in the snoop filter with multiple (>1) holders of the requested data.
system.membus.snoop_filter.hit_multi_snoops            0                       # Number of snoops hitting in the snoop filter with multiple (>1) holders of the requested data.
system.membus.snoop_filter.hit_single_requests        18596                       # Number of requests hitting in the snoop filter with a single holder of the requested data.
system.membus.snoop_filter.hit_single_snoops            0                       # Number of snoops hitting in the snoop filter with a single holder of the requested data.
system.membus.snoop_filter.tot_requests         37389                       # Total number of requests made to the snoop filter.
system.membus.snoop_filter.tot_snoops               0                       # Total number of snoops made to the snoop filter.
system.switch_cpus.cc_regfile_reads          11913992                       # number of cc regfile reads
system.switch_cpus.cc_regfile_writes          7368510                       # number of cc regfile writes
system.switch_cpus.committedInsts            10000000                       # Number of Instructions Simulated
system.switch_cpus.committedOps              18867927                       # Number of Ops (including micro ops) Simulated
system.switch_cpus.cpi                       1.334717                       # CPI: Cycles Per Instruction
system.switch_cpus.cpi_total                 1.334717                       # CPI: Total CPI of All Threads
system.switch_cpus.fp_regfile_reads            336228                       # number of floating regfile reads
system.switch_cpus.fp_regfile_writes           207409                       # number of floating regfile writes
system.switch_cpus.idleCycles                  847732                       # Total number of cycles that the CPU has spent unscheduled due to idling
system.switch_cpus.iew.branchMispredicts       256853                       # Number of branch mispredicts detected at execute
system.switch_cpus.iew.exec_branches          2486278                       # Number of branches executed
system.switch_cpus.iew.exec_nop                     0                       # number of nop insts executed
system.switch_cpus.iew.exec_rate             1.837111                       # Inst execution rate
system.switch_cpus.iew.exec_refs              4980936                       # number of memory reference insts executed
system.switch_cpus.iew.exec_stores            1813290                       # Number of stores executed
system.switch_cpus.iew.exec_swp                     0                       # number of swp insts executed
system.switch_cpus.iew.iewBlockCycles         1102953                       # Number of cycles IEW is blocking
system.switch_cpus.iew.iewDispLoadInsts       3539925                       # Number of dispatched load instructions
system.switch_cpus.iew.iewDispNonSpecInsts         1688                       # Number of dispatched non-speculative instructions
system.switch_cpus.iew.iewDispSquashedInsts        16302                       # Number of squashed instructions skipped by dispatch
system.switch_cpus.iew.iewDispStoreInsts      2048493                       # Number of dispatched store instructions
system.switch_cpus.iew.iewDispatchedInsts     27405487                       # Number of instructions dispatched to IQ
system.switch_cpus.iew.iewExecLoadInsts       3167646                       # Number of load instructions executed
system.switch_cpus.iew.iewExecSquashedInsts       414673                       # Number of squashed instructions skipped in execute
system.switch_cpus.iew.iewExecutedInsts      24520234                       # Number of executed instructions
system.switch_cpus.iew.iewIQFullEvents           3558                       # Number of times the IQ has become full, causing a stall
system.switch_cpus.iew.iewIdleCycles                0                       # Number of cycles IEW is idle
system.switch_cpus.iew.iewLSQFullEvents        478998                       # Number of times the LSQ has become full, causing a stall
system.switch_cpus.iew.iewSquashCycles         221023                       # Number of cycles IEW is squashing
system.switch_cpus.iew.iewUnblockCycles        484405                       # Number of cycles IEW is unblocking
system.switch_cpus.iew.memOrderViolationEvents         4394                       # Number of memory order violations
system.switch_cpus.iew.predictedNotTakenIncorrect       178948                       # Number of branches that were predicted not taken incorrectly
system.switch_cpus.iew.predictedTakenIncorrect        77905                       # Number of branches that were predicted taken incorrectly
system.switch_cpus.iew.wb_consumers          27969179                       # num instructions consuming a value
system.switch_cpus.iew.wb_count              24226865                       # cumulative count of insts written-back
system.switch_cpus.iew.wb_fanout             0.627944                       # average fanout of values written-back
system.switch_cpus.iew.wb_producers          17563085                       # num instructions producing a value
system.switch_cpus.iew.wb_rate               1.815131                       # insts written-back per cycle
system.switch_cpus.iew.wb_sent               24390943                       # cumulative count of insts sent to commit
system.switch_cpus.int_regfile_reads         34783719                       # number of integer regfile reads
system.switch_cpus.int_regfile_writes        19498395                       # number of integer regfile writes
system.switch_cpus.ipc                       0.749222                       # IPC: Instructions Per Cycle
system.switch_cpus.ipc_total                 0.749222                       # IPC: Total IPC of All Threads
system.switch_cpus.iq.FU_type_0::No_OpClass       437323      1.75%      1.75% # Type of FU issued
system.switch_cpus.iq.FU_type_0::IntAlu      19283683     77.34%     79.09% # Type of FU issued
system.switch_cpus.iq.FU_type_0::IntMult        17363      0.07%     79.16% # Type of FU issued
system.switch_cpus.iq.FU_type_0::IntDiv          2138      0.01%     79.17% # Type of FU issued
system.switch_cpus.iq.FU_type_0::FloatAdd        10371      0.04%     79.21% # Type of FU issued
system.switch_cpus.iq.FU_type_0::FloatCmp            0      0.00%     79.21% # Type of FU issued
system.switch_cpus.iq.FU_type_0::FloatCvt            0      0.00%     79.21% # Type of FU issued
system.switch_cpus.iq.FU_type_0::FloatMult            0      0.00%     79.21% # Type of FU issued
system.switch_cpus.iq.FU_type_0::FloatMultAcc            0      0.00%     79.21% # Type of FU issued
system.switch_cpus.iq.FU_type_0::FloatDiv            0      0.00%     79.21% # Type of FU issued
system.switch_cpus.iq.FU_type_0::FloatMisc            0      0.00%     79.21% # Type of FU issued
system.switch_cpus.iq.FU_type_0::FloatSqrt            0      0.00%     79.21% # Type of FU issued
system.switch_cpus.iq.FU_type_0::SimdAdd          896      0.00%     79.21% # Type of FU issued
system.switch_cpus.iq.FU_type_0::SimdAddAcc            0      0.00%     79.21% # Type of FU issued
system.switch_cpus.iq.FU_type_0::SimdAlu        15943      0.06%     79.28% # Type of FU issued
system.switch_cpus.iq.FU_type_0::SimdCmp           14      0.00%     79.28% # Type of FU issued
system.switch_cpus.iq.FU_type_0::SimdCvt         6554      0.03%     79.30% # Type of FU issued
system.switch_cpus.iq.FU_type_0::SimdMisc        31683      0.13%     79.43% # Type of FU issued
system.switch_cpus.iq.FU_type_0::SimdMult            0      0.00%     79.43% # Type of FU issued
system.switch_cpus.iq.FU_type_0::SimdMultAcc            0      0.00%     79.43% # Type of FU issued
system.switch_cpus.iq.FU_type_0::SimdShift           62      0.00%     79.43% # Type of FU issued
system.switch_cpus.iq.FU_type_0::SimdShiftAcc            0      0.00%     79.43% # Type of FU issued
system.switch_cpus.iq.FU_type_0::SimdDiv            0      0.00%     79.43% # Type of FU issued
system.switch_cpus.iq.FU_type_0::SimdSqrt            0      0.00%     79.43% # Type of FU issued
system.switch_cpus.iq.FU_type_0::SimdFloatAdd            3      0.00%     79.43% # Type of FU issued
system.switch_cpus.iq.FU_type_0::SimdFloatAlu            0      0.00%     79.43% # Type of FU issued
system.switch_cpus.iq.FU_type_0::SimdFloatCmp            0      0.00%     79.43% # Type of FU issued
system.switch_cpus.iq.FU_type_0::SimdFloatCvt           18      0.00%     79.43% # Type of FU issued
system.switch_cpus.iq.FU_type_0::SimdFloatDiv            2      0.00%     79.43% # Type of FU issued
system.switch_cpus.iq.FU_type_0::SimdFloatMisc            0      0.00%     79.43% # Type of FU issued
system.switch_cpus.iq.FU_type_0::SimdFloatMult            2      0.00%     79.43% # Type of FU issued
system.switch_cpus.iq.FU_type_0::SimdFloatMultAcc            0      0.00%     79.43% # Type of FU issued
system.switch_cpus.iq.FU_type_0::SimdFloatSqrt            0      0.00%     79.43% # Type of FU issued
system.switch_cpus.iq.FU_type_0::SimdReduceAdd            0      0.00%     79.43% # Type of FU issued
system.switch_cpus.iq.FU_type_0::SimdReduceAlu            0      0.00%     79.43% # Type of FU issued
system.switch_cpus.iq.FU_type_0::SimdReduceCmp            0      0.00%     79.43% # Type of FU issued
system.switch_cpus.iq.FU_type_0::SimdFloatReduceAdd            0      0.00%     79.43% # Type of FU issued
system.switch_cpus.iq.FU_type_0::SimdFloatReduceCmp            0      0.00%     79.43% # Type of FU issued
system.switch_cpus.iq.FU_type_0::SimdAes            0      0.00%     79.43% # Type of FU issued
system.switch_cpus.iq.FU_type_0::SimdAesMix            0      0.00%     79.43% # Type of FU issued
system.switch_cpus.iq.FU_type_0::SimdSha1Hash            0      0.00%     79.43% # Type of FU issued
system.switch_cpus.iq.FU_type_0::SimdSha1Hash2            0      0.00%     79.43% # Type of FU issued
system.switch_cpus.iq.FU_type_0::SimdSha256Hash            0      0.00%     79.43% # Type of FU issued
system.switch_cpus.iq.FU_type_0::SimdSha256Hash2            0      0.00%     79.43% # Type of FU issued
system.switch_cpus.iq.FU_type_0::SimdShaSigma2            0      0.00%     79.43% # Type of FU issued
system.switch_cpus.iq.FU_type_0::SimdShaSigma3            0      0.00%     79.43% # Type of FU issued
system.switch_cpus.iq.FU_type_0::SimdPredAlu            0      0.00%     79.43% # Type of FU issued
system.switch_cpus.iq.FU_type_0::MemRead      3119962     12.51%     91.94% # Type of FU issued
system.switch_cpus.iq.FU_type_0::MemWrite      1641738      6.58%     98.53% # Type of FU issued
system.switch_cpus.iq.FU_type_0::FloatMemRead       147216      0.59%     99.12% # Type of FU issued
system.switch_cpus.iq.FU_type_0::FloatMemWrite       219936      0.88%    100.00% # Type of FU issued
system.switch_cpus.iq.FU_type_0::IprAccess            0      0.00%    100.00% # Type of FU issued
system.switch_cpus.iq.FU_type_0::InstPrefetch            0      0.00%    100.00% # Type of FU issued
system.switch_cpus.iq.FU_type_0::total       24934907                       # Type of FU issued
system.switch_cpus.iq.fp_alu_accesses          486907                       # Number of floating point alu accesses
system.switch_cpus.iq.fp_inst_queue_reads       930619                       # Number of floating instruction queue reads
system.switch_cpus.iq.fp_inst_queue_wakeup_accesses       424886                       # Number of floating instruction queue wakeup accesses
system.switch_cpus.iq.fp_inst_queue_writes       754492                       # Number of floating instruction queue writes
system.switch_cpus.iq.fu_busy_cnt              600733                       # FU busy when requested
system.switch_cpus.iq.fu_busy_rate           0.024092                       # FU busy rate (busy events/executed inst)
system.switch_cpus.iq.fu_full::No_OpClass            0      0.00%      0.00% # attempts to use FU when none available
system.switch_cpus.iq.fu_full::IntAlu          504622     84.00%     84.00% # attempts to use FU when none available
system.switch_cpus.iq.fu_full::IntMult              0      0.00%     84.00% # attempts to use FU when none available
system.switch_cpus.iq.fu_full::IntDiv               0      0.00%     84.00% # attempts to use FU when none available
system.switch_cpus.iq.fu_full::FloatAdd             0      0.00%     84.00% # attempts to use FU when none available
system.switch_cpus.iq.fu_full::FloatCmp             0      0.00%     84.00% # attempts to use FU when none available
system.switch_cpus.iq.fu_full::FloatCvt             0      0.00%     84.00% # attempts to use FU when none available
system.switch_cpus.iq.fu_full::FloatMult            0      0.00%     84.00% # attempts to use FU when none available
system.switch_cpus.iq.fu_full::FloatMultAcc            0      0.00%     84.00% # attempts to use FU when none available
system.switch_cpus.iq.fu_full::FloatDiv             0      0.00%     84.00% # attempts to use FU when none available
system.switch_cpus.iq.fu_full::FloatMisc            0      0.00%     84.00% # attempts to use FU when none available
system.switch_cpus.iq.fu_full::FloatSqrt            0      0.00%     84.00% # attempts to use FU when none available
system.switch_cpus.iq.fu_full::SimdAdd              0      0.00%     84.00% # attempts to use FU when none available
system.switch_cpus.iq.fu_full::SimdAddAcc            0      0.00%     84.00% # attempts to use FU when none available
system.switch_cpus.iq.fu_full::SimdAlu            764      0.13%     84.13% # attempts to use FU when none available
system.switch_cpus.iq.fu_full::SimdCmp              0      0.00%     84.13% # attempts to use FU when none available
system.switch_cpus.iq.fu_full::SimdCvt             12      0.00%     84.13% # attempts to use FU when none available
system.switch_cpus.iq.fu_full::SimdMisc            12      0.00%     84.13% # attempts to use FU when none available
system.switch_cpus.iq.fu_full::SimdMult             0      0.00%     84.13% # attempts to use FU when none available
system.switch_cpus.iq.fu_full::SimdMultAcc            0      0.00%     84.13% # attempts to use FU when none available
system.switch_cpus.iq.fu_full::SimdShift            9      0.00%     84.13% # attempts to use FU when none available
system.switch_cpus.iq.fu_full::SimdShiftAcc            0      0.00%     84.13% # attempts to use FU when none available
system.switch_cpus.iq.fu_full::SimdDiv              0      0.00%     84.13% # attempts to use FU when none available
system.switch_cpus.iq.fu_full::SimdSqrt             0      0.00%     84.13% # attempts to use FU when none available
system.switch_cpus.iq.fu_full::SimdFloatAdd            0      0.00%     84.13% # attempts to use FU when none available
system.switch_cpus.iq.fu_full::SimdFloatAlu            0      0.00%     84.13% # attempts to use FU when none available
system.switch_cpus.iq.fu_full::SimdFloatCmp            0      0.00%     84.13% # attempts to use FU when none available
system.switch_cpus.iq.fu_full::SimdFloatCvt            0      0.00%     84.13% # attempts to use FU when none available
system.switch_cpus.iq.fu_full::SimdFloatDiv            0      0.00%     84.13% # attempts to use FU when none available
system.switch_cpus.iq.fu_full::SimdFloatMisc            0      0.00%     84.13% # attempts to use FU when none available
system.switch_cpus.iq.fu_full::SimdFloatMult            0      0.00%     84.13% # attempts to use FU when none available
system.switch_cpus.iq.fu_full::SimdFloatMultAcc            0      0.00%     84.13% # attempts to use FU when none available
system.switch_cpus.iq.fu_full::SimdFloatSqrt            0      0.00%     84.13% # attempts to use FU when none available
system.switch_cpus.iq.fu_full::SimdReduceAdd            0      0.00%     84.13% # attempts to use FU when none available
system.switch_cpus.iq.fu_full::SimdReduceAlu            0      0.00%     84.13% # attempts to use FU when none available
system.switch_cpus.iq.fu_full::SimdReduceCmp            0      0.00%     84.13% # attempts to use FU when none available
system.switch_cpus.iq.fu_full::SimdFloatReduceAdd            0      0.00%     84.13% # attempts to use FU when none available
system.switch_cpus.iq.fu_full::SimdFloatReduceCmp            0      0.00%     84.13% # attempts to use FU when none available
system.switch_cpus.iq.fu_full::SimdAes              0      0.00%     84.13% # attempts to use FU when none available
system.switch_cpus.iq.fu_full::SimdAesMix            0      0.00%     84.13% # attempts to use FU when none available
system.switch_cpus.iq.fu_full::SimdSha1Hash            0      0.00%     84.13% # attempts to use FU when none available
system.switch_cpus.iq.fu_full::SimdSha1Hash2            0      0.00%     84.13% # attempts to use FU when none available
system.switch_cpus.iq.fu_full::SimdSha256Hash            0      0.00%     84.13% # attempts to use FU when none available
system.switch_cpus.iq.fu_full::SimdSha256Hash2            0      0.00%     84.13% # attempts to use FU when none available
system.switch_cpus.iq.fu_full::SimdShaSigma2            0      0.00%     84.13% # attempts to use FU when none available
system.switch_cpus.iq.fu_full::SimdShaSigma3            0      0.00%     84.13% # attempts to use FU when none available
system.switch_cpus.iq.fu_full::SimdPredAlu            0      0.00%     84.13% # attempts to use FU when none available
system.switch_cpus.iq.fu_full::MemRead          24496      4.08%     88.21% # attempts to use FU when none available
system.switch_cpus.iq.fu_full::MemWrite         25822      4.30%     92.51% # attempts to use FU when none available
system.switch_cpus.iq.fu_full::FloatMemRead        39336      6.55%     99.06% # attempts to use FU when none available
system.switch_cpus.iq.fu_full::FloatMemWrite         5660      0.94%    100.00% # attempts to use FU when none available
system.switch_cpus.iq.fu_full::IprAccess            0      0.00%    100.00% # attempts to use FU when none available
system.switch_cpus.iq.fu_full::InstPrefetch            0      0.00%    100.00% # attempts to use FU when none available
system.switch_cpus.iq.int_alu_accesses       24611410                       # Number of integer alu accesses
system.switch_cpus.iq.int_inst_queue_reads     62194276                       # Number of integer instruction queue reads
system.switch_cpus.iq.int_inst_queue_wakeup_accesses     23801979                       # Number of integer instruction queue wakeup accesses
system.switch_cpus.iq.int_inst_queue_writes     35192754                       # Number of integer instruction queue writes
system.switch_cpus.iq.iqInstsAdded           27398845                       # Number of instructions added to the IQ (excludes non-spec)
system.switch_cpus.iq.iqInstsIssued          24934907                       # Number of instructions issued
system.switch_cpus.iq.iqNonSpecInstsAdded         6642                       # Number of non-speculative instructions added to the IQ
system.switch_cpus.iq.iqSquashedInstsExamined      8537560                       # Number of squashed instructions iterated over during squash; mainly for profiling
system.switch_cpus.iq.iqSquashedInstsIssued       154906                       # Number of squashed instructions issued
system.switch_cpus.iq.iqSquashedNonSpecRemoved         4418                       # Number of squashed non-spec instructions that were removed
system.switch_cpus.iq.iqSquashedOperandsExamined     10092156                       # Number of squashed operands that are examined and possibly removed from graph
system.switch_cpus.iq.issued_per_cycle::samples     12499442                       # Number of insts issued each cycle
system.switch_cpus.iq.issued_per_cycle::mean     1.994882                       # Number of insts issued each cycle
system.switch_cpus.iq.issued_per_cycle::stdev     2.442548                       # Number of insts issued each cycle
system.switch_cpus.iq.issued_per_cycle::underflows            0      0.00%      0.00% # Number of insts issued each cycle
system.switch_cpus.iq.issued_per_cycle::0      6150161     49.20%     49.20% # Number of insts issued each cycle
system.switch_cpus.iq.issued_per_cycle::1       927054      7.42%     56.62% # Number of insts issued each cycle
system.switch_cpus.iq.issued_per_cycle::2       976249      7.81%     64.43% # Number of insts issued each cycle
system.switch_cpus.iq.issued_per_cycle::3       949459      7.60%     72.03% # Number of insts issued each cycle
system.switch_cpus.iq.issued_per_cycle::4       993932      7.95%     79.98% # Number of insts issued each cycle
system.switch_cpus.iq.issued_per_cycle::5       825852      6.61%     86.59% # Number of insts issued each cycle
system.switch_cpus.iq.issued_per_cycle::6       877652      7.02%     93.61% # Number of insts issued each cycle
system.switch_cpus.iq.issued_per_cycle::7       556586      4.45%     98.06% # Number of insts issued each cycle
system.switch_cpus.iq.issued_per_cycle::8       242497      1.94%    100.00% # Number of insts issued each cycle
system.switch_cpus.iq.issued_per_cycle::overflows            0      0.00%    100.00% # Number of insts issued each cycle
system.switch_cpus.iq.issued_per_cycle::min_value            0                       # Number of insts issued each cycle
system.switch_cpus.iq.issued_per_cycle::max_value            8                       # Number of insts issued each cycle
system.switch_cpus.iq.issued_per_cycle::total     12499442                       # Number of insts issued each cycle
system.switch_cpus.iq.rate                   1.868179                       # Inst issue rate
system.switch_cpus.iq.vec_alu_accesses              0                       # Number of vector alu accesses
system.switch_cpus.iq.vec_inst_queue_reads            0                       # Number of vector instruction queue reads
system.switch_cpus.iq.vec_inst_queue_wakeup_accesses            0                       # Number of vector instruction queue wakeup accesses
system.switch_cpus.iq.vec_inst_queue_writes            0                       # Number of vector instruction queue writes
system.switch_cpus.memDep0.conflictingLoads       191594                       # Number of conflicting loads.
system.switch_cpus.memDep0.conflictingStores       295244                       # Number of conflicting stores.
system.switch_cpus.memDep0.insertedLoads      3539925                       # Number of loads inserted to the mem dependence unit.
system.switch_cpus.memDep0.insertedStores      2048493                       # Number of stores inserted to the mem dependence unit.
system.switch_cpus.misc_regfile_reads        10774948                       # number of misc regfile reads
system.switch_cpus.numCycles                 13347174                       # number of cpu cycles simulated
system.switch_cpus.numWorkItemsCompleted            0                       # number of work items this cpu completed
system.switch_cpus.numWorkItemsStarted              0                       # number of work items this cpu started
system.switch_cpus.timesIdled                   66955                       # Number of times that the entire CPU went into an idle state and unscheduled itself
system.tol2bus.snoop_filter.hit_multi_requests          704                       # Number of requests hitting in the snoop filter with multiple (>1) holders of the requested data.
system.tol2bus.snoop_filter.hit_multi_snoops            2                       # Number of snoops hitting in the snoop filter with multiple (>1) holders of the requested data.
system.tol2bus.snoop_filter.hit_single_requests       213658                       # Number of requests hitting in the snoop filter with a single holder of the requested data.
system.tol2bus.snoop_filter.hit_single_snoops          941                       # Number of snoops hitting in the snoop filter with a single holder of the requested data.
system.tol2bus.snoop_filter.tot_requests       427623                       # Total number of requests made to the snoop filter.
system.tol2bus.snoop_filter.tot_snoops            943                       # Total number of snoops made to the snoop filter.
system.clk_domain.clock                          1000                       # Clock period in ticks
system.cpu.branchPred.lookups                       0                       # Number of BP lookups
system.cpu.branchPred.condPredicted                 0                       # Number of conditional branches predicted
system.cpu.branchPred.condIncorrect                 0                       # Number of conditional branches incorrect
system.cpu.branchPred.BTBLookups                    0                       # Number of BTB lookups
system.cpu.branchPred.BTBHits                       0                       # Number of BTB hits
system.cpu.branchPred.BTBHitPct                   nan                       # BTB Hit Percentage
system.cpu.branchPred.RASUsed                       0                       # Number of times the RAS was used to get a target.
system.cpu.branchPred.RASIncorrect                  0                       # Number of incorrect RAS predictions.
system.cpu.branchPred.indirectLookups               0                       # Number of indirect predictor lookups.
system.cpu.branchPred.indirectHits                  0                       # Number of indirect target hits.
system.cpu.branchPred.indirectMisses                0                       # Number of indirect misses.
system.cpu.branchPred.indirectMispredicted            0                       # Number of mispredicted indirect branches.
system.cpu.dcache.demand_hits::.switch_cpus.data      4160737                       # number of demand (read+write) hits
system.cpu.dcache.demand_hits::total          4160737                       # number of demand (read+write) hits
system.cpu.dcache.overall_hits::.switch_cpus.data      4188961                       # number of overall hits
system.cpu.dcache.overall_hits::total         4188961                       # number of overall hits
system.cpu.dcache.demand_misses::.switch_cpus.data        65554                       # number of demand (read+write) misses
system.cpu.dcache.demand_misses::total          65554                       # number of demand (read+write) misses
system.cpu.dcache.overall_misses::.switch_cpus.data        67388                       # number of overall misses
system.cpu.dcache.overall_misses::total         67388                       # number of overall misses
system.cpu.dcache.demand_miss_latency::.switch_cpus.data   1877662998                       # number of demand (read+write) miss cycles
system.cpu.dcache.demand_miss_latency::total   1877662998                       # number of demand (read+write) miss cycles
system.cpu.dcache.overall_miss_latency::.switch_cpus.data   1877662998                       # number of overall miss cycles
system.cpu.dcache.overall_miss_latency::total   1877662998                       # number of overall miss cycles
system.cpu.dcache.demand_accesses::.switch_cpus.data      4226291                       # number of demand (read+write) accesses
system.cpu.dcache.demand_accesses::total      4226291                       # number of demand (read+write) accesses
system.cpu.dcache.overall_accesses::.switch_cpus.data      4256349                       # number of overall (read+write) accesses
system.cpu.dcache.overall_accesses::total      4256349                       # number of overall (read+write) accesses
system.cpu.dcache.demand_miss_rate::.switch_cpus.data     0.015511                       # miss rate for demand accesses
system.cpu.dcache.demand_miss_rate::total     0.015511                       # miss rate for demand accesses
system.cpu.dcache.overall_miss_rate::.switch_cpus.data     0.015832                       # miss rate for overall accesses
system.cpu.dcache.overall_miss_rate::total     0.015832                       # miss rate for overall accesses
system.cpu.dcache.demand_avg_miss_latency::.switch_cpus.data 28642.996583                       # average overall miss latency
system.cpu.dcache.demand_avg_miss_latency::total 28642.996583                       # average overall miss latency
system.cpu.dcache.overall_avg_miss_latency::.switch_cpus.data 27863.462308                       # average overall miss latency
system.cpu.dcache.overall_avg_miss_latency::total 27863.462308                       # average overall miss latency
system.cpu.dcache.blocked_cycles::no_mshrs         2389                       # number of cycles access was blocked
system.cpu.dcache.blocked_cycles::no_targets           39                       # number of cycles access was blocked
system.cpu.dcache.blocked::no_mshrs               156                       # number of cycles access was blocked
system.cpu.dcache.blocked::no_targets               1                       # number of cycles access was blocked
system.cpu.dcache.avg_blocked_cycles::no_mshrs    15.314103                       # average number of cycles each access was blocked
system.cpu.dcache.avg_blocked_cycles::no_targets           39                       # average number of cycles each access was blocked
system.cpu.dcache.writebacks::.writebacks        35507                       # number of writebacks
system.cpu.dcache.writebacks::total             35507                       # number of writebacks
system.cpu.dcache.demand_mshr_hits::.switch_cpus.data        19658                       # number of demand (read+write) MSHR hits
system.cpu.dcache.demand_mshr_hits::total        19658                       # number of demand (read+write) MSHR hits
system.cpu.dcache.overall_mshr_hits::.switch_cpus.data        19658                       # number of overall MSHR hits
system.cpu.dcache.overall_mshr_hits::total        19658                       # number of overall MSHR hits
system.cpu.dcache.demand_mshr_misses::.switch_cpus.data        45896                       # number of demand (read+write) MSHR misses
system.cpu.dcache.demand_mshr_misses::total        45896                       # number of demand (read+write) MSHR misses
system.cpu.dcache.overall_mshr_misses::.switch_cpus.data        46557                       # number of overall MSHR misses
system.cpu.dcache.overall_mshr_misses::total        46557                       # number of overall MSHR misses
system.cpu.dcache.demand_mshr_miss_latency::.switch_cpus.data   1376040998                       # number of demand (read+write) MSHR miss cycles
system.cpu.dcache.demand_mshr_miss_latency::total   1376040998                       # number of demand (read+write) MSHR miss cycles
system.cpu.dcache.overall_mshr_miss_latency::.switch_cpus.data   1416475498                       # number of overall MSHR miss cycles
system.cpu.dcache.overall_mshr_miss_latency::total   1416475498                       # number of overall MSHR miss cycles
system.cpu.dcache.demand_mshr_miss_rate::.switch_cpus.data     0.010860                       # mshr miss rate for demand accesses
system.cpu.dcache.demand_mshr_miss_rate::total     0.010860                       # mshr miss rate for demand accesses
system.cpu.dcache.overall_mshr_miss_rate::.switch_cpus.data     0.010938                       # mshr miss rate for overall accesses
system.cpu.dcache.overall_mshr_miss_rate::total     0.010938                       # mshr miss rate for overall accesses
system.cpu.dcache.demand_avg_mshr_miss_latency::.switch_cpus.data 29981.719496                       # average overall mshr miss latency
system.cpu.dcache.demand_avg_mshr_miss_latency::total 29981.719496                       # average overall mshr miss latency
system.cpu.dcache.overall_avg_mshr_miss_latency::.switch_cpus.data 30424.544064                       # average overall mshr miss latency
system.cpu.dcache.overall_avg_mshr_miss_latency::total 30424.544064                       # average overall mshr miss latency
system.cpu.dcache.replacements                  46297                       # number of replacements
system.cpu.dcache.ReadReq_hits::.switch_cpus.data      2797693                       # number of ReadReq hits
system.cpu.dcache.ReadReq_hits::total         2797693                       # number of ReadReq hits
system.cpu.dcache.ReadReq_misses::.switch_cpus.data        49985                       # number of ReadReq misses
system.cpu.dcache.ReadReq_misses::total         49985                       # number of ReadReq misses
system.cpu.dcache.ReadReq_miss_latency::.switch_cpus.data   1029068500                       # number of ReadReq miss cycles
system.cpu.dcache.ReadReq_miss_latency::total   1029068500                       # number of ReadReq miss cycles
system.cpu.dcache.ReadReq_accesses::.switch_cpus.data      2847678                       # number of ReadReq accesses(hits+misses)
system.cpu.dcache.ReadReq_accesses::total      2847678                       # number of ReadReq accesses(hits+misses)
system.cpu.dcache.ReadReq_miss_rate::.switch_cpus.data     0.017553                       # miss rate for ReadReq accesses
system.cpu.dcache.ReadReq_miss_rate::total     0.017553                       # miss rate for ReadReq accesses
system.cpu.dcache.ReadReq_avg_miss_latency::.switch_cpus.data 20587.546264                       # average ReadReq miss latency
system.cpu.dcache.ReadReq_avg_miss_latency::total 20587.546264                       # average ReadReq miss latency
system.cpu.dcache.ReadReq_mshr_hits::.switch_cpus.data        19026                       # number of ReadReq MSHR hits
system.cpu.dcache.ReadReq_mshr_hits::total        19026                       # number of ReadReq MSHR hits
system.cpu.dcache.ReadReq_mshr_misses::.switch_cpus.data        30959                       # number of ReadReq MSHR misses
system.cpu.dcache.ReadReq_mshr_misses::total        30959                       # number of ReadReq MSHR misses
system.cpu.dcache.ReadReq_mshr_miss_latency::.switch_cpus.data    553503500                       # number of ReadReq MSHR miss cycles
system.cpu.dcache.ReadReq_mshr_miss_latency::total    553503500                       # number of ReadReq MSHR miss cycles
system.cpu.dcache.ReadReq_mshr_miss_rate::.switch_cpus.data     0.010872                       # mshr miss rate for ReadReq accesses
system.cpu.dcache.ReadReq_mshr_miss_rate::total     0.010872                       # mshr miss rate for ReadReq accesses
system.cpu.dcache.ReadReq_avg_mshr_miss_latency::.switch_cpus.data 17878.597500                       # average ReadReq mshr miss latency
system.cpu.dcache.ReadReq_avg_mshr_miss_latency::total 17878.597500                       # average ReadReq mshr miss latency
system.cpu.dcache.WriteReq_hits::.switch_cpus.data      1363044                       # number of WriteReq hits
system.cpu.dcache.WriteReq_hits::total        1363044                       # number of WriteReq hits
system.cpu.dcache.WriteReq_misses::.switch_cpus.data        15569                       # number of WriteReq misses
system.cpu.dcache.WriteReq_misses::total        15569                       # number of WriteReq misses
system.cpu.dcache.WriteReq_miss_latency::.switch_cpus.data    848594498                       # number of WriteReq miss cycles
system.cpu.dcache.WriteReq_miss_latency::total    848594498                       # number of WriteReq miss cycles
system.cpu.dcache.WriteReq_accesses::.switch_cpus.data      1378613                       # number of WriteReq accesses(hits+misses)
system.cpu.dcache.WriteReq_accesses::total      1378613                       # number of WriteReq accesses(hits+misses)
system.cpu.dcache.WriteReq_miss_rate::.switch_cpus.data     0.011293                       # miss rate for WriteReq accesses
system.cpu.dcache.WriteReq_miss_rate::total     0.011293                       # miss rate for WriteReq accesses
system.cpu.dcache.WriteReq_avg_miss_latency::.switch_cpus.data 54505.395208                       # average WriteReq miss latency
system.cpu.dcache.WriteReq_avg_miss_latency::total 54505.395208                       # average WriteReq miss latency
system.cpu.dcache.WriteReq_mshr_hits::.switch_cpus.data          632                       # number of WriteReq MSHR hits
system.cpu.dcache.WriteReq_mshr_hits::total          632                       # number of WriteReq MSHR hits
system.cpu.dcache.WriteReq_mshr_misses::.switch_cpus.data        14937                       # number of WriteReq MSHR misses
system.cpu.dcache.WriteReq_mshr_misses::total        14937                       # number of WriteReq MSHR misses
system.cpu.dcache.WriteReq_mshr_miss_latency::.switch_cpus.data    822537498                       # number of WriteReq MSHR miss cycles
system.cpu.dcache.WriteReq_mshr_miss_latency::total    822537498                       # number of WriteReq MSHR miss cycles
system.cpu.dcache.WriteReq_mshr_miss_rate::.switch_cpus.data     0.010835                       # mshr miss rate for WriteReq accesses
system.cpu.dcache.WriteReq_mshr_miss_rate::total     0.010835                       # mshr miss rate for WriteReq accesses
system.cpu.dcache.WriteReq_avg_mshr_miss_latency::.switch_cpus.data 55067.115083                       # average WriteReq mshr miss latency
system.cpu.dcache.WriteReq_avg_mshr_miss_latency::total 55067.115083                       # average WriteReq mshr miss latency
system.cpu.dcache.SoftPFReq_hits::.switch_cpus.data        28224                       # number of SoftPFReq hits
system.cpu.dcache.SoftPFReq_hits::total         28224                       # number of SoftPFReq hits
system.cpu.dcache.SoftPFReq_misses::.switch_cpus.data         1834                       # number of SoftPFReq misses
system.cpu.dcache.SoftPFReq_misses::total         1834                       # number of SoftPFReq misses
system.cpu.dcache.SoftPFReq_accesses::.switch_cpus.data        30058                       # number of SoftPFReq accesses(hits+misses)
system.cpu.dcache.SoftPFReq_accesses::total        30058                       # number of SoftPFReq accesses(hits+misses)
system.cpu.dcache.SoftPFReq_miss_rate::.switch_cpus.data     0.061015                       # miss rate for SoftPFReq accesses
system.cpu.dcache.SoftPFReq_miss_rate::total     0.061015                       # miss rate for SoftPFReq accesses
system.cpu.dcache.SoftPFReq_mshr_misses::.switch_cpus.data          661                       # number of SoftPFReq MSHR misses
system.cpu.dcache.SoftPFReq_mshr_misses::total          661                       # number of SoftPFReq MSHR misses
system.cpu.dcache.SoftPFReq_mshr_miss_latency::.switch_cpus.data     40434500                       # number of SoftPFReq MSHR miss cycles
system.cpu.dcache.SoftPFReq_mshr_miss_latency::total     40434500                       # number of SoftPFReq MSHR miss cycles
system.cpu.dcache.SoftPFReq_mshr_miss_rate::.switch_cpus.data     0.021991                       # mshr miss rate for SoftPFReq accesses
system.cpu.dcache.SoftPFReq_mshr_miss_rate::total     0.021991                       # mshr miss rate for SoftPFReq accesses
system.cpu.dcache.SoftPFReq_avg_mshr_miss_latency::.switch_cpus.data 61171.709531                       # average SoftPFReq mshr miss latency
system.cpu.dcache.SoftPFReq_avg_mshr_miss_latency::total 61171.709531                       # average SoftPFReq mshr miss latency
system.cpu.dcache.power_state.pwrStateResidencyTicks::UNDEFINED   7743757000                       # Cumulative time (in ticks) in various power states
system.cpu.dcache.tags.tagsinuse                 1024                       # Cycle average of tags in use
system.cpu.dcache.tags.total_refs             4393673                       # Total number of references to valid blocks.
system.cpu.dcache.tags.sampled_refs             47321                       # Sample count of references to valid blocks.
system.cpu.dcache.tags.avg_refs             92.848270                       # Average number of references to valid blocks.
system.cpu.dcache.tags.warmup_cycle                 0                       # Cycle when the warmup percentage was hit.
system.cpu.dcache.tags.occ_blocks::.cpu.data    41.953459                       # Average occupied blocks per requestor
system.cpu.dcache.tags.occ_blocks::.switch_cpus.data   982.046541                       # Average occupied blocks per requestor
system.cpu.dcache.tags.occ_percent::.cpu.data     0.040970                       # Average percentage of cache occupancy
system.cpu.dcache.tags.occ_percent::.switch_cpus.data     0.959030                       # Average percentage of cache occupancy
system.cpu.dcache.tags.occ_percent::total            1                       # Average percentage of cache occupancy
system.cpu.dcache.tags.occ_task_id_blocks::1024         1024                       # Occupied blocks per task id
system.cpu.dcache.tags.age_task_id_blocks_1024::0           43                       # Occupied blocks per task id
system.cpu.dcache.tags.age_task_id_blocks_1024::1          237                       # Occupied blocks per task id
system.cpu.dcache.tags.age_task_id_blocks_1024::2          735                       # Occupied blocks per task id
system.cpu.dcache.tags.age_task_id_blocks_1024::3            9                       # Occupied blocks per task id
system.cpu.dcache.tags.occ_task_id_percent::1024            1                       # Percentage of cache occupancy per task id
system.cpu.dcache.tags.tag_accesses           8558995                       # Number of tag accesses
system.cpu.dcache.tags.data_accesses          8558995                       # Number of data accesses
system.cpu.dcache.tags.power_state.pwrStateResidencyTicks::UNDEFINED   7743757000                       # Cumulative time (in ticks) in various power states
system.cpu.dtb.rdAccesses                           0                       # TLB accesses on read requests
system.cpu.dtb.wrAccesses                           0                       # TLB accesses on write requests
system.cpu.dtb.rdMisses                             0                       # TLB misses on read requests
system.cpu.dtb.wrMisses                             0                       # TLB misses on write requests
system.cpu.dtb.walker.power_state.pwrStateResidencyTicks::UNDEFINED   7743757000                       # Cumulative time (in ticks) in various power states
system.cpu.dtb_walker_cache.blocked_cycles::no_mshrs            0                       # number of cycles access was blocked
system.cpu.dtb_walker_cache.blocked_cycles::no_targets            0                       # number of cycles access was blocked
system.cpu.dtb_walker_cache.blocked::no_mshrs            0                       # number of cycles access was blocked
system.cpu.dtb_walker_cache.blocked::no_targets            0                       # number of cycles access was blocked
system.cpu.dtb_walker_cache.avg_blocked_cycles::no_mshrs          nan                       # average number of cycles each access was blocked
system.cpu.dtb_walker_cache.avg_blocked_cycles::no_targets          nan                       # average number of cycles each access was blocked
system.cpu.dtb_walker_cache.replacements            0                       # number of replacements
system.cpu.dtb_walker_cache.power_state.pwrStateResidencyTicks::UNDEFINED   7743757000                       # Cumulative time (in ticks) in various power states
system.cpu.dtb_walker_cache.tags.tagsinuse            0                       # Cycle average of tags in use
system.cpu.dtb_walker_cache.tags.total_refs            0                       # Total number of references to valid blocks.
system.cpu.dtb_walker_cache.tags.sampled_refs            0                       # Sample count of references to valid blocks.
system.cpu.dtb_walker_cache.tags.avg_refs          nan                       # Average number of references to valid blocks.
system.cpu.dtb_walker_cache.tags.warmup_cycle            0                       # Cycle when the warmup percentage was hit.
system.cpu.dtb_walker_cache.tags.tag_accesses            0                       # Number of tag accesses
system.cpu.dtb_walker_cache.tags.data_accesses            0                       # Number of data accesses
system.cpu.dtb_walker_cache.tags.power_state.pwrStateResidencyTicks::UNDEFINED   7743757000                       # Cumulative time (in ticks) in various power states
system.cpu.icache.demand_hits::.switch_cpus.inst      2094735                       # number of demand (read+write) hits
system.cpu.icache.demand_hits::total          2094735                       # number of demand (read+write) hits
system.cpu.icache.overall_hits::.switch_cpus.inst      2094735                       # number of overall hits
system.cpu.icache.overall_hits::total         2094735                       # number of overall hits
system.cpu.icache.demand_misses::.switch_cpus.inst       182920                       # number of demand (read+write) misses
system.cpu.icache.demand_misses::total         182920                       # number of demand (read+write) misses
system.cpu.icache.overall_misses::.switch_cpus.inst       182920                       # number of overall misses
system.cpu.icache.overall_misses::total        182920                       # number of overall misses
system.cpu.icache.demand_miss_latency::.switch_cpus.inst   2849528486                       # number of demand (read+write) miss cycles
system.cpu.icache.demand_miss_latency::total   2849528486                       # number of demand (read+write) miss cycles
system.cpu.icache.overall_miss_latency::.switch_cpus.inst   2849528486                       # number of overall miss cycles
system.cpu.icache.overall_miss_latency::total   2849528486                       # number of overall miss cycles
system.cpu.icache.demand_accesses::.switch_cpus.inst      2277655                       # number of demand (read+write) accesses
system.cpu.icache.demand_accesses::total      2277655                       # number of demand (read+write) accesses
system.cpu.icache.overall_accesses::.switch_cpus.inst      2277655                       # number of overall (read+write) accesses
system.cpu.icache.overall_accesses::total      2277655                       # number of overall (read+write) accesses
system.cpu.icache.demand_miss_rate::.switch_cpus.inst     0.080311                       # miss rate for demand accesses
system.cpu.icache.demand_miss_rate::total     0.080311                       # miss rate for demand accesses
system.cpu.icache.overall_miss_rate::.switch_cpus.inst     0.080311                       # miss rate for overall accesses
system.cpu.icache.overall_miss_rate::total     0.080311                       # miss rate for overall accesses
system.cpu.icache.demand_avg_miss_latency::.switch_cpus.inst 15578.003969                       # average overall miss latency
system.cpu.icache.demand_avg_miss_latency::total 15578.003969                       # average overall miss latency
system.cpu.icache.overall_avg_miss_latency::.switch_cpus.inst 15578.003969                       # average overall miss latency
system.cpu.icache.overall_avg_miss_latency::total 15578.003969                       # average overall miss latency
system.cpu.icache.blocked_cycles::no_mshrs         5148                       # number of cycles access was blocked
system.cpu.icache.blocked_cycles::no_targets            0                       # number of cycles access was blocked
system.cpu.icache.blocked::no_mshrs               172                       # number of cycles access was blocked
system.cpu.icache.blocked::no_targets               0                       # number of cycles access was blocked
system.cpu.icache.avg_blocked_cycles::no_mshrs    29.930233                       # average number of cycles each access was blocked
system.cpu.icache.avg_blocked_cycles::no_targets          nan                       # average number of cycles each access was blocked
system.cpu.icache.writebacks::.writebacks       167285                       # number of writebacks
system.cpu.icache.writebacks::total            167285                       # number of writebacks
system.cpu.icache.demand_mshr_hits::.switch_cpus.inst        15436                       # number of demand (read+write) MSHR hits
system.cpu.icache.demand_mshr_hits::total        15436                       # number of demand (read+write) MSHR hits
system.cpu.icache.overall_mshr_hits::.switch_cpus.inst        15436                       # number of overall MSHR hits
system.cpu.icache.overall_mshr_hits::total        15436                       # number of overall MSHR hits
system.cpu.icache.demand_mshr_misses::.switch_cpus.inst       167484                       # number of demand (read+write) MSHR misses
system.cpu.icache.demand_mshr_misses::total       167484                       # number of demand (read+write) MSHR misses
system.cpu.icache.overall_mshr_misses::.switch_cpus.inst       167484                       # number of overall MSHR misses
system.cpu.icache.overall_mshr_misses::total       167484                       # number of overall MSHR misses
system.cpu.icache.demand_mshr_miss_latency::.switch_cpus.inst   2500135987                       # number of demand (read+write) MSHR miss cycles
system.cpu.icache.demand_mshr_miss_latency::total   2500135987                       # number of demand (read+write) MSHR miss cycles
system.cpu.icache.overall_mshr_miss_latency::.switch_cpus.inst   2500135987                       # number of overall MSHR miss cycles
system.cpu.icache.overall_mshr_miss_latency::total   2500135987                       # number of overall MSHR miss cycles
system.cpu.icache.demand_mshr_miss_rate::.switch_cpus.inst     0.073534                       # mshr miss rate for demand accesses
system.cpu.icache.demand_mshr_miss_rate::total     0.073534                       # mshr miss rate for demand accesses
system.cpu.icache.overall_mshr_miss_rate::.switch_cpus.inst     0.073534                       # mshr miss rate for overall accesses
system.cpu.icache.overall_mshr_miss_rate::total     0.073534                       # mshr miss rate for overall accesses
system.cpu.icache.demand_avg_mshr_miss_latency::.switch_cpus.inst 14927.610918                       # average overall mshr miss latency
system.cpu.icache.demand_avg_mshr_miss_latency::total 14927.610918                       # average overall mshr miss latency
system.cpu.icache.overall_avg_mshr_miss_latency::.switch_cpus.inst 14927.610918                       # average overall mshr miss latency
system.cpu.icache.overall_avg_mshr_miss_latency::total 14927.610918                       # average overall mshr miss latency
system.cpu.icache.replacements                 167285                       # number of replacements
system.cpu.icache.ReadReq_hits::.switch_cpus.inst      2094735                       # number of ReadReq hits
system.cpu.icache.ReadReq_hits::total         2094735                       # number of ReadReq hits
system.cpu.icache.ReadReq_misses::.switch_cpus.inst       182920                       # number of ReadReq misses
system.cpu.icache.ReadReq_misses::total        182920                       # number of ReadReq misses
system.cpu.icache.ReadReq_miss_latency::.switch_cpus.inst   2849528486                       # number of ReadReq miss cycles
system.cpu.icache.ReadReq_miss_latency::total   2849528486                       # number of ReadReq miss cycles
system.cpu.icache.ReadReq_accesses::.switch_cpus.inst      2277655                       # number of ReadReq accesses(hits+misses)
system.cpu.icache.ReadReq_accesses::total      2277655                       # number of ReadReq accesses(hits+misses)
system.cpu.icache.ReadReq_miss_rate::.switch_cpus.inst     0.080311                       # miss rate for ReadReq accesses
system.cpu.icache.ReadReq_miss_rate::total     0.080311                       # miss rate for ReadReq accesses
system.cpu.icache.ReadReq_avg_miss_latency::.switch_cpus.inst 15578.003969                       # average ReadReq miss latency
system.cpu.icache.ReadReq_avg_miss_latency::total 15578.003969                       # average ReadReq miss latency
system.cpu.icache.ReadReq_mshr_hits::.switch_cpus.inst        15436                       # number of ReadReq MSHR hits
system.cpu.icache.ReadReq_mshr_hits::total        15436                       # number of ReadReq MSHR hits
system.cpu.icache.ReadReq_mshr_misses::.switch_cpus.inst       167484                       # number of ReadReq MSHR misses
system.cpu.icache.ReadReq_mshr_misses::total       167484                       # number of ReadReq MSHR misses
system.cpu.icache.ReadReq_mshr_miss_latency::.switch_cpus.inst   2500135987                       # number of ReadReq MSHR miss cycles
system.cpu.icache.ReadReq_mshr_miss_latency::total   2500135987                       # number of ReadReq MSHR miss cycles
system.cpu.icache.ReadReq_mshr_miss_rate::.switch_cpus.inst     0.073534                       # mshr miss rate for ReadReq accesses
system.cpu.icache.ReadReq_mshr_miss_rate::total     0.073534                       # mshr miss rate for ReadReq accesses
system.cpu.icache.ReadReq_avg_mshr_miss_latency::.switch_cpus.inst 14927.610918                       # average ReadReq mshr miss latency
system.cpu.icache.ReadReq_avg_mshr_miss_latency::total 14927.610918                       # average ReadReq mshr miss latency
system.cpu.icache.power_state.pwrStateResidencyTicks::UNDEFINED   7743757000                       # Cumulative time (in ticks) in various power states
system.cpu.icache.tags.tagsinuse          1023.466348                       # Cycle average of tags in use
system.cpu.icache.tags.total_refs             2560974                       # Total number of references to valid blocks.
system.cpu.icache.tags.sampled_refs            168498                       # Sample count of references to valid blocks.
system.cpu.icache.tags.avg_refs             15.198839                       # Average number of references to valid blocks.
system.cpu.icache.tags.warmup_cycle                 0                       # Cycle when the warmup percentage was hit.
system.cpu.icache.tags.occ_blocks::.cpu.inst    40.298300                       # Average occupied blocks per requestor
system.cpu.icache.tags.occ_blocks::.switch_cpus.inst   983.168048                       # Average occupied blocks per requestor
system.cpu.icache.tags.occ_percent::.cpu.inst     0.039354                       # Average percentage of cache occupancy
system.cpu.icache.tags.occ_percent::.switch_cpus.inst     0.960125                       # Average percentage of cache occupancy
system.cpu.icache.tags.occ_percent::total     0.999479                       # Average percentage of cache occupancy
system.cpu.icache.tags.occ_task_id_blocks::1024         1024                       # Occupied blocks per task id
system.cpu.icache.tags.age_task_id_blocks_1024::0          325                       # Occupied blocks per task id
system.cpu.icache.tags.age_task_id_blocks_1024::1          365                       # Occupied blocks per task id
system.cpu.icache.tags.age_task_id_blocks_1024::2          291                       # Occupied blocks per task id
system.cpu.icache.tags.age_task_id_blocks_1024::3           43                       # Occupied blocks per task id
system.cpu.icache.tags.occ_task_id_percent::1024            1                       # Percentage of cache occupancy per task id
system.cpu.icache.tags.tag_accesses           4722793                       # Number of tag accesses
system.cpu.icache.tags.data_accesses          4722793                       # Number of data accesses
system.cpu.icache.tags.power_state.pwrStateResidencyTicks::UNDEFINED   7743757000                       # Cumulative time (in ticks) in various power states
system.cpu.interrupts.clk_domain.clock           8000                       # Clock period in ticks
system.cpu.itb.rdAccesses                           0                       # TLB accesses on read requests
system.cpu.itb.wrAccesses                           0                       # TLB accesses on write requests
system.cpu.itb.rdMisses                             0                       # TLB misses on read requests
system.cpu.itb.wrMisses                             0                       # TLB misses on write requests
system.cpu.itb.walker.power_state.pwrStateResidencyTicks::UNDEFINED   7743757000                       # Cumulative time (in ticks) in various power states
system.cpu.itb_walker_cache.blocked_cycles::no_mshrs            0                       # number of cycles access was blocked
system.cpu.itb_walker_cache.blocked_cycles::no_targets            0                       # number of cycles access was blocked
system.cpu.itb_walker_cache.blocked::no_mshrs            0                       # number of cycles access was blocked
system.cpu.itb_walker_cache.blocked::no_targets            0                       # number of cycles access was blocked
system.cpu.itb_walker_cache.avg_blocked_cycles::no_mshrs          nan                       # average number of cycles each access was blocked
system.cpu.itb_walker_cache.avg_blocked_cycles::no_targets          nan                       # average number of cycles each access was blocked
system.cpu.itb_walker_cache.replacements            0                       # number of replacements
system.cpu.itb_walker_cache.power_state.pwrStateResidencyTicks::UNDEFINED   7743757000                       # Cumulative time (in ticks) in various power states
system.cpu.itb_walker_cache.tags.tagsinuse            0                       # Cycle average of tags in use
system.cpu.itb_walker_cache.tags.total_refs            0                       # Total number of references to valid blocks.
system.cpu.itb_walker_cache.tags.sampled_refs            0                       # Sample count of references to valid blocks.
system.cpu.itb_walker_cache.tags.avg_refs          nan                       # Average number of references to valid blocks.
system.cpu.itb_walker_cache.tags.warmup_cycle            0                       # Cycle when the warmup percentage was hit.
system.cpu.itb_walker_cache.tags.tag_accesses            0                       # Number of tag accesses
system.cpu.itb_walker_cache.tags.data_accesses            0                       # Number of data accesses
system.cpu.itb_walker_cache.tags.power_state.pwrStateResidencyTicks::UNDEFINED   7743757000                       # Cumulative time (in ticks) in various power states
system.cpu.power_state.pwrStateResidencyTicks::OFF   6673587000                       # Cumulative time (in ticks) in various power states
system.cpu.thread_0.numInsts                        0                       # Number of Instructions committed
system.cpu.thread_0.numOps                          0                       # Number of Ops committed
system.cpu.thread_0.numMemRefs                      0                       # Number of Memory References
system.cpu_clk_domain.clock                       500                       # Clock period in ticks
system.cpu_voltage_domain.voltage                   1                       # Voltage in Volts
system.l2.demand_hits::.switch_cpus.inst       160668                       # number of demand (read+write) hits
system.l2.demand_hits::.switch_cpus.data        34039                       # number of demand (read+write) hits
system.l2.demand_hits::total                   194707                       # number of demand (read+write) hits
system.l2.overall_hits::.switch_cpus.inst       160668                       # number of overall hits
system.l2.overall_hits::.switch_cpus.data        34039                       # number of overall hits
system.l2.overall_hits::total                  194707                       # number of overall hits
system.l2.demand_misses::.switch_cpus.inst         6538                       # number of demand (read+write) misses
system.l2.demand_misses::.switch_cpus.data        12258                       # number of demand (read+write) misses
system.l2.demand_misses::total                  18796                       # number of demand (read+write) misses
system.l2.overall_misses::.switch_cpus.inst         6538                       # number of overall misses
system.l2.overall_misses::.switch_cpus.data        12258                       # number of overall misses
system.l2.overall_misses::total                 18796                       # number of overall misses
system.l2.demand_miss_latency::.switch_cpus.inst    548870500                       # number of demand (read+write) miss cycles
system.l2.demand_miss_latency::.switch_cpus.data    982266000                       # number of demand (read+write) miss cycles
system.l2.demand_miss_latency::total       1531136500                       # number of demand (read+write) miss cycles
system.l2.overall_miss_latency::.switch_cpus.inst    548870500                       # number of overall miss cycles
system.l2.overall_miss_latency::.switch_cpus.data    982266000                       # number of overall miss cycles
system.l2.overall_miss_latency::total      1531136500                       # number of overall miss cycles
system.l2.demand_accesses::.switch_cpus.inst       167206                       # number of demand (read+write) accesses
system.l2.demand_accesses::.switch_cpus.data        46297                       # number of demand (read+write) accesses
system.l2.demand_accesses::total               213503                       # number of demand (read+write) accesses
system.l2.overall_accesses::.switch_cpus.inst       167206                       # number of overall (read+write) accesses
system.l2.overall_accesses::.switch_cpus.data        46297                       # number of overall (read+write) accesses
system.l2.overall_accesses::total              213503                       # number of overall (read+write) accesses
system.l2.demand_miss_rate::.switch_cpus.inst     0.039101                       # miss rate for demand accesses
system.l2.demand_miss_rate::.switch_cpus.data     0.264769                       # miss rate for demand accesses
system.l2.demand_miss_rate::total            0.088036                       # miss rate for demand accesses
system.l2.overall_miss_rate::.switch_cpus.inst     0.039101                       # miss rate for overall accesses
system.l2.overall_miss_rate::.switch_cpus.data     0.264769                       # miss rate for overall accesses
system.l2.overall_miss_rate::total           0.088036                       # miss rate for overall accesses
system.l2.demand_avg_miss_latency::.switch_cpus.inst 83950.825941                       # average overall miss latency
system.l2.demand_avg_miss_latency::.switch_cpus.data 80132.648067                       # average overall miss latency
system.l2.demand_avg_miss_latency::total 81460.762928                       # average overall miss latency
system.l2.overall_avg_miss_latency::.switch_cpus.inst 83950.825941                       # average overall miss latency
system.l2.overall_avg_miss_latency::.switch_cpus.data 80132.648067                       # average overall miss latency
system.l2.overall_avg_miss_latency::total 81460.762928                       # average overall miss latency
system.l2.blocked_cycles::no_mshrs                  0                       # number of cycles access was blocked
system.l2.blocked_cycles::no_targets                0                       # number of cycles access was blocked
system.l2.blocked::no_mshrs                         0                       # number of cycles access was blocked
system.l2.blocked::no_targets                       0                       # number of cycles access was blocked
system.l2.avg_blocked_cycles::no_mshrs            nan                       # average number of cycles each access was blocked
system.l2.avg_blocked_cycles::no_targets          nan                       # average number of cycles each access was blocked
system.l2.writebacks::.writebacks                9834                       # number of writebacks
system.l2.writebacks::total                      9834                       # number of writebacks
system.l2.demand_mshr_hits::.switch_cpus.inst            1                       # number of demand (read+write) MSHR hits
system.l2.demand_mshr_hits::total                   1                       # number of demand (read+write) MSHR hits
system.l2.overall_mshr_hits::.switch_cpus.inst            1                       # number of overall MSHR hits
system.l2.overall_mshr_hits::total                  1                       # number of overall MSHR hits
system.l2.demand_mshr_misses::.switch_cpus.inst         6537                       # number of demand (read+write) MSHR misses
system.l2.demand_mshr_misses::.switch_cpus.data        12258                       # number of demand (read+write) MSHR misses
system.l2.demand_mshr_misses::total             18795                       # number of demand (read+write) MSHR misses
system.l2.overall_mshr_misses::.switch_cpus.inst         6537                       # number of overall MSHR misses
system.l2.overall_mshr_misses::.switch_cpus.data        12258                       # number of overall MSHR misses
system.l2.overall_mshr_misses::total            18795                       # number of overall MSHR misses
system.l2.demand_mshr_miss_latency::.switch_cpus.inst    483422500                       # number of demand (read+write) MSHR miss cycles
system.l2.demand_mshr_miss_latency::.switch_cpus.data    859686000                       # number of demand (read+write) MSHR miss cycles
system.l2.demand_mshr_miss_latency::total   1343108500                       # number of demand (read+write) MSHR miss cycles
system.l2.overall_mshr_miss_latency::.switch_cpus.inst    483422500                       # number of overall MSHR miss cycles
system.l2.overall_mshr_miss_latency::.switch_cpus.data    859686000                       # number of overall MSHR miss cycles
system.l2.overall_mshr_miss_latency::total   1343108500                       # number of overall MSHR miss cycles
system.l2.demand_mshr_miss_rate::.switch_cpus.inst     0.039095                       # mshr miss rate for demand accesses
system.l2.demand_mshr_miss_rate::.switch_cpus.data     0.264769                       # mshr miss rate for demand accesses
system.l2.demand_mshr_miss_rate::total       0.088032                       # mshr miss rate for demand accesses
system.l2.overall_mshr_miss_rate::.switch_cpus.inst     0.039095                       # mshr miss rate for overall accesses
system.l2.overall_mshr_miss_rate::.switch_cpus.data     0.264769                       # mshr miss rate for overall accesses
system.l2.overall_mshr_miss_rate::total      0.088032                       # mshr miss rate for overall accesses
system.l2.demand_avg_mshr_miss_latency::.switch_cpus.inst 73951.736270                       # average overall mshr miss latency
system.l2.demand_avg_mshr_miss_latency::.switch_cpus.data 70132.648067                       # average overall mshr miss latency
system.l2.demand_avg_mshr_miss_latency::total 71460.947060                       # average overall mshr miss latency
system.l2.overall_avg_mshr_miss_latency::.switch_cpus.inst 73951.736270                       # average overall mshr miss latency
system.l2.overall_avg_mshr_miss_latency::.switch_cpus.data 70132.648067                       # average overall mshr miss latency
system.l2.overall_avg_mshr_miss_latency::total 71460.947060                       # average overall mshr miss latency
system.l2.replacements                          19336                       # number of replacements
system.l2.WritebackDirty_hits::.writebacks        35507                       # number of WritebackDirty hits
system.l2.WritebackDirty_hits::total            35507                       # number of WritebackDirty hits
system.l2.WritebackDirty_accesses::.writebacks        35507                       # number of WritebackDirty accesses(hits+misses)
system.l2.WritebackDirty_accesses::total        35507                       # number of WritebackDirty accesses(hits+misses)
system.l2.WritebackClean_hits::.writebacks       167176                       # number of WritebackClean hits
system.l2.WritebackClean_hits::total           167176                       # number of WritebackClean hits
system.l2.WritebackClean_accesses::.writebacks       167176                       # number of WritebackClean accesses(hits+misses)
system.l2.WritebackClean_accesses::total       167176                       # number of WritebackClean accesses(hits+misses)
system.l2.CleanEvict_mshr_misses::.writebacks          181                       # number of CleanEvict MSHR misses
system.l2.CleanEvict_mshr_misses::total           181                       # number of CleanEvict MSHR misses
system.l2.CleanEvict_mshr_miss_rate::.writebacks          inf                       # mshr miss rate for CleanEvict accesses
system.l2.CleanEvict_mshr_miss_rate::total          inf                       # mshr miss rate for CleanEvict accesses
system.l2.UpgradeReq_hits::.switch_cpus.data          253                       # number of UpgradeReq hits
system.l2.UpgradeReq_hits::total                  253                       # number of UpgradeReq hits
[...]
system.switch_cpus.commit.committedInstType_0::SimdAddAcc            0      0.00%     79.78% # Class of committed instruction
system.switch_cpus.commit.committedInstType_0::SimdAlu        12526      0.07%     79.85% # Class of committed instruction
system.switch_cpus.commit.committedInstType_0::SimdCmp           14      0.00%     79.85% # Class of committed instruction
system.switch_cpus.commit.committedInstType_0::SimdCvt         6358      0.03%     79.88% # Class of committed instruction
system.switch_cpus.commit.committedInstType_0::SimdMisc        30171      0.16%     80.04% # Class of committed instruction
system.switch_cpus.commit.committedInstType_0::SimdMult            0      0.00%     80.04% # Class of committed instruction
system.switch_cpus.commit.committedInstType_0::SimdMultAcc            0      0.00%     80.04% # Class of committed instruction
system.switch_cpus.commit.committedInstType_0::SimdShift           30      0.00%     80.04% # Class of committed instruction
system.switch_cpus.commit.committedInstType_0::SimdShiftAcc            0      0.00%     80.04% # Class of committed instruction
system.switch_cpus.commit.committedInstType_0::SimdDiv            0      0.00%     80.04% # Class of committed instruction
system.switch_cpus.commit.committedInstType_0::SimdSqrt            0      0.00%     80.04% # Class of committed instruction
system.switch_cpus.commit.committedInstType_0::SimdFloatAdd            3      0.00%     80.04% # Class of committed instruction
system.switch_cpus.commit.committedInstType_0::SimdFloatAlu            0      0.00%     80.04% # Class of committed instruction
system.switch_cpus.commit.committedInstType_0::SimdFloatCmp            0      0.00%     80.04% # Class of committed instruction
system.switch_cpus.commit.committedInstType_0::SimdFloatCvt            4      0.00%     80.04% # Class of committed instruction
system.switch_cpus.commit.committedInstType_0::SimdFloatDiv            1      0.00%     80.04% # Class of committed instruction
system.switch_cpus.commit.committedInstType_0::SimdFloatMisc            0      0.00%     80.04% # Class of committed instruction
system.switch_cpus.commit.committedInstType_0::SimdFloatMult            1      0.00%     80.04% # Class of committed instruction
system.switch_cpus.commit.committedInstType_0::SimdFloatMultAcc            0      0.00%     80.04% # Class of committed instruction
system.switch_cpus.commit.committedInstType_0::SimdFloatSqrt            0      0.00%     80.04% # Class of committed instruction
system.switch_cpus.commit.committedInstType_0::SimdReduceAdd            0      0.00%     80.04% # Class of committed instruction
system.switch_cpus.commit.committedInstType_0::SimdReduceAlu            0      0.00%     80.04% # Class of committed instruction
system.switch_cpus.commit.committedInstType_0::SimdReduceCmp            0      0.00%     80.04% # Class of committed instruction
system.switch_cpus.commit.committedInstType_0::SimdFloatReduceAdd            0      0.00%     80.04% # Class of committed instruction
system.switch_cpus.commit.committedInstType_0::SimdFloatReduceCmp            0      0.00%     80.04% # Class of committed instruction
system.switch_cpus.commit.committedInstType_0::SimdAes            0      0.00%     80.04% # Class of committed instruction
system.switch_cpus.commit.committedInstType_0::SimdAesMix            0      0.00%     80.04% # Class of committed instruction
system.switch_cpus.commit.committedInstType_0::SimdSha1Hash            0      0.00%     80.04% # Class of committed instruction
system.switch_cpus.commit.committedInstType_0::SimdSha1Hash2            0      0.00%     80.04% # Class of committed instruction
system.switch_cpus.commit.committedInstType_0::SimdSha256Hash            0      0.00%     80.04% # Class of committed instruction
system.switch_cpus.commit.committedInstType_0::SimdSha256Hash2            0      0.00%     80.04% # Class of committed instruction
system.switch_cpus.commit.committedInstType_0::SimdShaSigma2            0      0.00%     80.04% # Class of committed instruction
system.switch_cpus.commit.committedInstType_0::SimdShaSigma3            0      0.00%     80.04% # Class of committed instruction
system.switch_cpus.commit.committedInstType_0::SimdPredAlu            0      0.00%     80.04% # Class of committed instruction
system.switch_cpus.commit.committedInstType_0::MemRead      2358859     12.50%     92.54% # Class of committed instruction
system.switch_cpus.commit.committedInstType_0::MemWrite      1283780      6.80%     99.35% # Class of committed instruction
system.switch_cpus.commit.committedInstType_0::FloatMemRead        28534      0.15%     99.50% # Class of committed instruction
system.switch_cpus.commit.committedInstType_0::FloatMemWrite        94674      0.50%    100.00% # Class of committed instruction
system.switch_cpus.commit.committedInstType_0::IprAccess            0      0.00%    100.00% # Class of committed instruction
system.switch_cpus.commit.committedInstType_0::InstPrefetch            0      0.00%    100.00% # Class of committed instruction
system.switch_cpus.commit.committedInstType_0::total     18867927                       # Class of committed instruction
system.switch_cpus.commit.commitEligibleSamples      1040554                       # number cycles where commit BW limit reached
system.switch_cpus.decode.idleCycles          4962269                       # Number of cycles decode is idle
system.switch_cpus.decode.blockedCycles       2787252                       # Number of cycles decode is blocked
system.switch_cpus.decode.runCycles           4273392                       # Number of cycles decode is running
system.switch_cpus.decode.unblockCycles        255501                       # Number of cycles decode is unblocking
system.switch_cpus.decode.squashCycles         221023                       # Number of cycles decode is squashing
system.switch_cpus.decode.branchResolved      1289678                       # Number of times decode resolved a  branch
system.switch_cpus.decode.branchMispred         40917                       # Number of times decode detected a branch misprediction
system.switch_cpus.decode.decodedInsts       29910875                       # Number of instructions handled by decode
system.switch_cpus.decode.squashedInsts        173926                       # Number of squashed instructions handled by decode
system.switch_cpus.dtb.rdAccesses             3167885                       # TLB accesses on read requests
system.switch_cpus.dtb.wrAccesses             1813996                       # TLB accesses on write requests
system.switch_cpus.dtb.rdMisses                 15577                       # TLB misses on read requests
system.switch_cpus.dtb.wrMisses                  2440                       # TLB misses on write requests
system.switch_cpus.dtb.walker.power_state.pwrStateResidencyTicks::UNDEFINED   7743757000                       # Cumulative time (in ticks) in various power states
system.switch_cpus.fetch.icacheStallCycles      5353577                       # Number of cycles fetch is stalled on an Icache miss
system.switch_cpus.fetch.insts               16939620                       # Number of instructions fetch has processed
system.switch_cpus.fetch.branches             3579620                       # Number of branches that fetch encountered
system.switch_cpus.fetch.predictedBranches      1556387                       # Number of branches that fetch has predicted taken
system.switch_cpus.fetch.cycles               6880948                       # Number of cycles fetch has run and was not squashing or blocked
system.switch_cpus.fetch.squashCycles          522394                       # Number of cycles fetch has spent squashing
system.switch_cpus.fetch.miscStallCycles          413                       # Number of cycles fetch has spent waiting on interrupts,or bad addresses, or out of MSHRs
system.switch_cpus.fetch.pendingTrapStallCycles         2649                       # Number of stall cycles due to pending traps
system.switch_cpus.fetch.icacheWaitRetryStallCycles          658                       # Number of stall cycles due to full MSHR
system.switch_cpus.fetch.cacheLines           2277660                       # Number of cache lines fetched
system.switch_cpus.fetch.icacheSquashes        108562                       # Number of outstanding Icache misses that were squashed
system.switch_cpus.fetch.nisnDist::samples     12499442                       # Number of instructions fetched each cycle (Total)
system.switch_cpus.fetch.nisnDist::mean      2.549676                       # Number of instructions fetched each cycle (Total)
system.switch_cpus.fetch.nisnDist::stdev     3.433561                       # Number of instructions fetched each cycle (Total)
system.switch_cpus.fetch.nisnDist::underflows            0      0.00%      0.00% # Number of instructions fetched each cycle (Total)
system.switch_cpus.fetch.nisnDist::0          7516124     60.13%     60.13% # Number of instructions fetched each cycle (Total)
system.switch_cpus.fetch.nisnDist::1           237430      1.90%     62.03% # Number of instructions fetched each cycle (Total)
system.switch_cpus.fetch.nisnDist::2           229264      1.83%     63.87% # Number of instructions fetched each cycle (Total)
system.switch_cpus.fetch.nisnDist::3           277580      2.22%     66.09% # Number of instructions fetched each cycle (Total)
system.switch_cpus.fetch.nisnDist::4           346044      2.77%     68.85% # Number of instructions fetched each cycle (Total)
system.switch_cpus.fetch.nisnDist::5           386926      3.10%     71.95% # Number of instructions fetched each cycle (Total)
system.switch_cpus.fetch.nisnDist::6           382206      3.06%     75.01% # Number of instructions fetched each cycle (Total)
system.switch_cpus.fetch.nisnDist::7           262162      2.10%     77.11% # Number of instructions fetched each cycle (Total)
system.switch_cpus.fetch.nisnDist::8          2861706     22.89%    100.00% # Number of instructions fetched each cycle (Total)
system.switch_cpus.fetch.nisnDist::overflows            0      0.00%    100.00% # Number of instructions fetched each cycle (Total)
system.switch_cpus.fetch.nisnDist::min_value            0                       # Number of instructions fetched each cycle (Total)
system.switch_cpus.fetch.nisnDist::max_value            8                       # Number of instructions fetched each cycle (Total)
system.switch_cpus.fetch.nisnDist::total     12499442                       # Number of instructions fetched each cycle (Total)
system.switch_cpus.fetch.branchRate          0.268193                       # Number of branch fetches per cycle
system.switch_cpus.fetch.rate                1.269154                       # Number of inst fetches per cycle
system.switch_cpus.itb.rdAccesses                   0                       # TLB accesses on read requests
system.switch_cpus.itb.wrAccesses             2278000                       # TLB accesses on write requests
system.switch_cpus.itb.rdMisses                     0                       # TLB misses on read requests
system.switch_cpus.itb.wrMisses                 28134                       # TLB misses on write requests
system.switch_cpus.itb.walker.power_state.pwrStateResidencyTicks::UNDEFINED   7743757000                       # Cumulative time (in ticks) in various power states
system.switch_cpus.lsq0.forwLoads              274261                       # Number of loads that had data forwarded from stores
system.switch_cpus.lsq0.squashedLoads         1152532                       # Number of loads squashed
system.switch_cpus.lsq0.ignoredResponses         2064                       # Number of memory responses ignored because the instruction is squashed
system.switch_cpus.lsq0.memOrderViolation         4394                       # Number of memory ordering violations
system.switch_cpus.lsq0.squashedStores         670039                       # Number of stores squashed
system.switch_cpus.lsq0.rescheduledLoads         8105                       # Number of loads that were rescheduled
system.switch_cpus.lsq0.blockedByCache            117                       # Number of times an access to memory failed due to the cache being blocked
system.switch_cpus.power_state.pwrStateResidencyTicks::OFF   7743757000                       # Cumulative time (in ticks) in various power states
system.switch_cpus.rename.squashCycles         221023                       # Number of cycles rename is squashing
system.switch_cpus.rename.idleCycles          5145149                       # Number of cycles rename is idle
system.switch_cpus.rename.blockCycles         1717306                       # Number of cycles rename is blocking
system.switch_cpus.rename.serializeStallCycles            5                       # count of cycles rename stalledfor serializing inst
system.switch_cpus.rename.runCycles           4308867                       # Number of cycles rename is running
system.switch_cpus.rename.unblockCycles       1107087                       # Number of cycles rename is unblocking
system.switch_cpus.rename.renamedInsts       29063485                       # Number of instructions processed by rename
system.switch_cpus.rename.ROBFullEvents          9412                       # Number of times rename has blocked due to ROB full
system.switch_cpus.rename.IQFullEvents          98520                       # Number of times rename has blocked due to IQ full
system.switch_cpus.rename.LQFullEvents           8048                       # Number of times rename has blocked due to LQ full
system.switch_cpus.rename.SQFullEvents         949231                       # Number of times rename has blocked due to SQ full
system.switch_cpus.rename.renamedOperands     32443770                       # Number of destination operands rename has renamed
system.switch_cpus.rename.lookups            71436693                       # Number of register rename lookups that rename has made
system.switch_cpus.rename.intLookups         42578606                       # Number of integer rename lookups
system.switch_cpus.rename.fpLookups            380100                       # Number of floating rename lookups
system.switch_cpus.rename.committedMaps      21340992                       # Number of HB maps that are committed
system.switch_cpus.rename.undoneMaps         11102777                       # Number of HB maps that are undone due to squashing
system.switch_cpus.rename.serializing               2                       # count of serializing insts renamed
system.switch_cpus.rename.tempSerializing            2                       # count of temporary serializing insts renamed
system.switch_cpus.rename.skidInsts            710945                       # count of insts added to the skid buffer
system.switch_cpus.rob.reads                 37479034                       # The number of ROB reads
system.switch_cpus.rob.writes                55785178                       # The number of ROB writes
system.switch_cpus.thread_0.numInsts         10000000                       # Number of Instructions committed
system.switch_cpus.thread_0.numOps           18867927                       # Number of Ops committed
system.switch_cpus.thread_0.numMemRefs              0                       # Number of Memory References
system.tol2bus.trans_dist::ReadResp            199084                       # Transaction distribution
system.tol2bus.trans_dist::WritebackDirty        45341                       # Transaction distribution
system.tol2bus.trans_dist::WritebackClean       167285                       # Transaction distribution
system.tol2bus.trans_dist::CleanEvict           20292                       # Transaction distribution
system.tol2bus.trans_dist::UpgradeReq             260                       # Transaction distribution
system.tol2bus.trans_dist::UpgradeResp            260                       # Transaction distribution
system.tol2bus.trans_dist::ReadExReq            14696                       # Transaction distribution
system.tol2bus.trans_dist::ReadExResp           14696                       # Transaction distribution
system.tol2bus.trans_dist::ReadCleanReq        167484                       # Transaction distribution
system.tol2bus.trans_dist::ReadSharedReq        31601                       # Transaction distribution
system.tol2bus.pkt_count_system.cpu.icache.mem_side_port::system.l2.cpu_side_port       501974                       # Packet count per connected requestor and responder (bytes)
system.tol2bus.pkt_count_system.cpu.dcache.mem_side_port::system.l2.cpu_side_port       139411                       # Packet count per connected requestor and responder (bytes)
system.tol2bus.pkt_count::total                641385                       # Packet count per connected requestor and responder (bytes)
system.tol2bus.pkt_size_system.cpu.icache.mem_side_port::system.l2.cpu_side_port     21407360                       # Cumulative packet size per connected requestor and responder (bytes)
system.tol2bus.pkt_size_system.cpu.dcache.mem_side_port::system.l2.cpu_side_port      5235456                       # Cumulative packet size per connected requestor and responder (bytes)
system.tol2bus.pkt_size::total               26642816                       # Cumulative packet size per connected requestor and responder (bytes)
system.tol2bus.snoops                           19614                       # Total snoops (count)
system.tol2bus.snoopTraffic                    647168                       # Total snoop traffic (bytes)
system.tol2bus.snoop_fanout::samples           233377                       # Request fanout histogram
system.tol2bus.snoop_fanout::mean            0.007083                       # Request fanout histogram
system.tol2bus.snoop_fanout::stdev           0.083964                       # Request fanout histogram
system.tol2bus.snoop_fanout::underflows             0      0.00%      0.00% # Request fanout histogram
system.tol2bus.snoop_fanout::0                 231726     99.29%     99.29% # Request fanout histogram
system.tol2bus.snoop_fanout::1                   1649      0.71%    100.00% # Request fanout histogram
system.tol2bus.snoop_fanout::2                      2      0.00%    100.00% # Request fanout histogram
system.tol2bus.snoop_fanout::3                      0      0.00%    100.00% # Request fanout histogram
system.tol2bus.snoop_fanout::4                      0      0.00%    100.00% # Request fanout histogram
system.tol2bus.snoop_fanout::overflows              0      0.00%    100.00% # Request fanout histogram
system.tol2bus.snoop_fanout::min_value              0                       # Request fanout histogram
system.tol2bus.snoop_fanout::max_value              2                       # Request fanout histogram
system.tol2bus.snoop_fanout::total             233377                       # Request fanout histogram
system.tol2bus.power_state.pwrStateResidencyTicks::UNDEFINED   7743757000                       # Cumulative time (in ticks) in various power states
system.tol2bus.reqLayer0.occupancy          416603500                       # Layer occupancy (ticks)
system.tol2bus.reqLayer0.utilization              6.2                       # Layer utilization (%)
system.tol2bus.respLayer0.occupancy         251239470                       # Layer occupancy (ticks)
system.tol2bus.respLayer0.utilization             3.8                       # Layer utilization (%)
system.tol2bus.respLayer1.occupancy          69595959                       # Layer occupancy (ticks)
system.tol2bus.respLayer1.utilization             1.0                       # Layer utilization (%)
system.voltage_domain.voltage                       1                       # Voltage in Volts

---------- End Simulation Statistics   ----------
