
---------- Begin Simulation Statistics ----------
final_tick                                 3893724000                       # Number of ticks from beginning of simulation (restored from checkpoints and never reset)
host_inst_rate                                 235596                       # Simulator instruction rate (inst/s)
host_mem_usage                                8573600                       # Number of bytes of host memory used
host_op_rate                                   429435                       # Simulator op (including micro ops) rate (op/s)
host_seconds                                    46.69                       # Real time elapsed on the host
host_tick_rate                               53800220                       # Simulator tick rate (ticks/s)
sim_freq                                 1000000000000                       # Frequency of simulated ticks
sim_insts                                    11000001                       # Number of instructions simulated
sim_ops                                      20050437                       # Number of ops (including micro ops) simulated
sim_seconds                                  0.002512                       # Number of seconds simulated
sim_ticks                                  2511950000                       # Number of ticks simulated
system.cpu.committedInsts                           0                       # Number of instructions committed
system.cpu.committedOps                             0                       # Number of ops (including micro ops) committed
system.cpu.idle_fraction                            0                       # Percentage of idle cycles
system.cpu.not_idle_fraction                        1                       # Percentage of non-idle cycles
system.cpu.numCycles                                0                       # number of cpu cycles simulated
system.cpu.numWorkItemsCompleted                    0                       # number of work items this cpu completed
system.cpu.numWorkItemsStarted                      0                       # number of work items this cpu started
system.cpu.num_busy_cycles                          0                       # Number of busy cycles
system.cpu.num_conditional_control_insts            0                       # number of instructions that are conditional controls
system.cpu.num_fp_alu_accesses                      0                       # Number of float alu accesses
system.cpu.num_fp_insts                             0                       # number of float instructions
system.cpu.num_fp_register_reads                    0                       # number of times the floating registers were read
system.cpu.num_fp_register_writes                   0                       # number of times the floating registers were written
system.cpu.num_func_calls                           0                       # number of times a function call or return occured
system.cpu.num_idle_cycles                          0                       # Number of idle cycles
system.cpu.num_int_alu_accesses                     0                       # Number of integer alu accesses
system.cpu.num_int_insts                            0                       # number of integer instructions
system.cpu.num_int_register_reads                   0                       # number of times the integer registers were read
system.cpu.num_int_register_writes                  0                       # number of times the integer registers were written
system.cpu.num_load_insts                           0                       # Number of load instructions
system.cpu.num_mem_refs                             0                       # number of memory refs
system.cpu.num_store_insts                          0                       # Number of store instructions
system.cpu.num_vec_alu_accesses                     0                       # Number of vector alu accesses
system.cpu.num_vec_insts                            0                       # number of vector instructions
system.cpu.num_vec_register_reads                   0                       # number of times the vector registers were read
system.cpu.num_vec_register_writes                  0                       # number of times the vector registers were written
system.cpu.op_class::No_OpClass                     0                       # Class of executed instruction
system.cpu.op_class::IntAlu                         0                       # Class of executed instruction
system.cpu.op_class::IntMult                        0                       # Class of executed instruction
system.cpu.op_class::IntDiv                         0                       # Class of executed instruction
system.cpu.op_class::FloatAdd                       0                       # Class of executed instruction
system.cpu.op_class::FloatCmp                       0                       # Class of executed instruction
system.cpu.op_class::FloatCvt                       0                       # Class of executed instruction
system.cpu.op_class::FloatMult                      0                       # Class of executed instruction
system.cpu.op_class::FloatMultAcc                   0                       # Class of executed instruction
system.cpu.op_class::FloatDiv                       0                       # Class of executed instruction
system.cpu.op_class::FloatMisc                      0                       # Class of executed instruction
system.cpu.op_class::FloatSqrt                      0                       # Class of executed instruction
system.cpu.op_class::SimdAdd                        0                       # Class of executed instruction
system.cpu.op_class::SimdAddAcc                     0                       # Class of executed instruction
system.cpu.op_class::SimdAlu                        0                       # Class of executed instruction
system.cpu.op_class::SimdCmp                        0                       # Class of executed instruction
system.cpu.op_class::SimdCvt                        0                       # Class of executed instruction
system.cpu.op_class::SimdMisc                       0                       # Class of executed instruction
system.cpu.op_class::SimdMult                       0                       # Class of executed instruction
system.cpu.op_class::SimdMultAcc                    0                       # Class of executed instruction
system.cpu.op_class::SimdShift                      0                       # Class of executed instruction
system.cpu.op_class::SimdShiftAcc                   0                       # Class of executed instruction
system.cpu.op_class::SimdDiv                        0                       # Class of executed instruction
system.cpu.op_class::SimdSqrt                       0                       # Class of executed instruction
system.cpu.op_class::SimdFloatAdd                   0                       # Class of executed instruction
system.cpu.op_class::SimdFloatAlu                   0                       # Class of executed instruction
system.cpu.op_class::SimdFloatCmp                   0                       # Class of executed instruction
system.cpu.op_class::SimdFloatCvt                   0                       # Class of executed instruction
system.cpu.op_class::SimdFloatDiv                   0                       # Class of executed instruction
system.cpu.op_class::SimdFloatMisc                  0                       # Class of executed instruction
system.cpu.op_class::SimdFloatMult                  0                       # Class of executed instruction
system.cpu.op_class::SimdFloatMultAcc               0                       # Class of executed instruction
system.cpu.op_class::SimdFloatSqrt                  0                       # Class of executed instruction
system.cpu.op_class::SimdReduceAdd                  0                       # Class of executed instruction
system.cpu.op_class::SimdReduceAlu                  0                       # Class of executed instruction
system.cpu.op_class::SimdReduceCmp                  0                       # Class of executed instruction
system.cpu.op_class::SimdFloatReduceAdd             0                       # Class of executed instruction
system.cpu.op_class::SimdFloatReduceCmp             0                       # Class of executed instruction
system.cpu.op_class::SimdAes                        0                       # Class of executed instruction
system.cpu.op_class::SimdAesMix                     0                       # Class of executed instruction
system.cpu.op_class::SimdSha1Hash                   0                       # Class of executed instruction
system.cpu.op_class::SimdSha1Hash2                  0                       # Class of executed instruction
system.cpu.op_class::SimdSha256Hash                 0                       # Class of executed instruction
system.cpu.op_class::SimdSha256Hash2                0                       # Class of executed instruction
system.cpu.op_class::SimdShaSigma2                  0                       # Class of executed instruction
system.cpu.op_class::SimdShaSigma3                  0                       # Class of executed instruction
system.cpu.op_class::SimdPredAlu                    0                       # Class of executed instruction
system.cpu.op_class::MemRead                        0                       # Class of executed instruction
system.cpu.op_class::MemWrite                       0                       # Class of executed instruction
system.cpu.op_class::FloatMemRead                   0                       # Class of executed instruction
system.cpu.op_class::FloatMemWrite                  0                       # Class of executed instruction
system.cpu.op_class::IprAccess                      0                       # Class of executed instruction
system.cpu.op_class::InstPrefetch                   0                       # Class of executed instruction
system.cpu.op_class::total                          0                       # Class of executed instruction
system.cpu.workload.numSyscalls                     3                       # Number of system calls
system.membus.snoop_filter.hit_multi_requests            0                       # Number of requests hitting in the snoop filter with multiple (>1) holders of the requested data.
system.membus.snoop_filter.hit_multi_snoops            0                       # Number of snoops hitting in the snoop filter with multiple (>1) holders of the requested data.
system.membus.snoop_filter.hit_single_requests         6698                       # Number of requests hitting in the snoop filter with a single holder of the requested data.
system.membus.snoop_filter.hit_single_snoops            0                       # Number of snoops hitting in the snoop filter with a single holder of the requested data.
system.membus.snoop_filter.tot_requests         16083                       # Total number of requests made to the snoop filter.
system.membus.snoop_filter.tot_snoops               0                       # Total number of snoops made to the snoop filter.
system.switch_cpus.cc_regfile_reads           3890162                       # number of cc regfile reads
system.switch_cpus.cc_regfile_writes          3888904                       # number of cc regfile writes
system.switch_cpus.committedInsts            10000000                       # Number of Instructions Simulated
system.switch_cpus.committedOps              17613021                       # Number of Ops (including micro ops) Simulated
system.switch_cpus.cpi                       0.502390                       # CPI: Cycles Per Instruction
system.switch_cpus.cpi_total                 0.502390                       # CPI: Total CPI of All Threads
system.switch_cpus.fp_regfile_reads          12986224                       # number of floating regfile reads
system.switch_cpus.fp_regfile_writes          7315531                       # number of floating regfile writes
system.switch_cpus.idleCycles                     298                       # Total number of cycles that the CPU has spent unscheduled due to idling
system.switch_cpus.iew.branchMispredicts          662                       # Number of branch mispredicts detected at execute
system.switch_cpus.iew.exec_branches          1047072                       # Number of branches executed
system.switch_cpus.iew.exec_nop                     0                       # number of nop insts executed
system.switch_cpus.iew.exec_rate             3.511455                       # Inst execution rate
system.switch_cpus.iew.exec_refs              2692041                       # number of memory reference insts executed
system.switch_cpus.iew.exec_stores             449619                       # Number of stores executed
system.switch_cpus.iew.exec_swp                     0                       # number of swp insts executed
system.switch_cpus.iew.iewBlockCycles            4454                       # Number of cycles IEW is blocking
system.switch_cpus.iew.iewDispLoadInsts       2242526                       # Number of dispatched load instructions
system.switch_cpus.iew.iewDispNonSpecInsts            0                       # Number of dispatched non-speculative instructions
system.switch_cpus.iew.iewDispSquashedInsts          860                       # Number of squashed instructions skipped by dispatch
system.switch_cpus.iew.iewDispStoreInsts       450151                       # Number of dispatched store instructions
system.switch_cpus.iew.iewDispatchedInsts     17649872                       # Number of instructions dispatched to IQ
system.switch_cpus.iew.iewExecLoadInsts       2242422                       # Number of load instructions executed
system.switch_cpus.iew.iewExecSquashedInsts          632                       # Number of squashed instructions skipped in execute
system.switch_cpus.iew.iewExecutedInsts      17641199                       # Number of executed instructions
system.switch_cpus.iew.iewIQFullEvents             27                       # Number of times the IQ has become full, causing a stall
system.switch_cpus.iew.iewIdleCycles                0                       # Number of cycles IEW is idle
system.switch_cpus.iew.iewLSQFullEvents           471                       # Number of times the LSQ has become full, causing a stall
system.switch_cpus.iew.iewSquashCycles            762                       # Number of cycles IEW is squashing
system.switch_cpus.iew.iewUnblockCycles           512                       # Number of cycles IEW is unblocking
system.switch_cpus.iew.memOrderViolationEvents            8                       # Number of memory order violations
system.switch_cpus.iew.predictedNotTakenIncorrect          204                       # Number of branches that were predicted not taken incorrectly
system.switch_cpus.iew.predictedTakenIncorrect          458                       # Number of branches that were predicted taken incorrectly
system.switch_cpus.iew.wb_consumers          23519669                       # num instructions consuming a value
system.switch_cpus.iew.wb_count              17639998                       # cumulative count of insts written-back
system.switch_cpus.iew.wb_fanout             0.586206                       # average fanout of values written-back
system.switch_cpus.iew.wb_producers          13787377                       # num instructions producing a value
system.switch_cpus.iew.wb_rate               3.511216                       # insts written-back per cycle
system.switch_cpus.iew.wb_sent               17640306                       # cumulative count of insts sent to commit
system.switch_cpus.int_regfile_reads         16754751                       # number of integer regfile reads
system.switch_cpus.int_regfile_writes         8529132                       # number of integer regfile writes
system.switch_cpus.ipc                       1.990485                       # IPC: Instructions Per Cycle
system.switch_cpus.ipc_total                 1.990485                       # IPC: Total IPC of All Threads
system.switch_cpus.iq.FU_type_0::No_OpClass       299269      1.70%      1.70% # Type of FU issued
system.switch_cpus.iq.FU_type_0::IntAlu       9126461     51.73%     53.43% # Type of FU issued
system.switch_cpus.iq.FU_type_0::IntMult          320      0.00%     53.43% # Type of FU issued
system.switch_cpus.iq.FU_type_0::IntDiv             0      0.00%     53.43% # Type of FU issued
system.switch_cpus.iq.FU_type_0::FloatAdd       448287      2.54%     55.97% # Type of FU issued
system.switch_cpus.iq.FU_type_0::FloatCmp            0      0.00%     55.97% # Type of FU issued
system.switch_cpus.iq.FU_type_0::FloatCvt            0      0.00%     55.97% # Type of FU issued
system.switch_cpus.iq.FU_type_0::FloatMult            0      0.00%     55.97% # Type of FU issued
system.switch_cpus.iq.FU_type_0::FloatMultAcc            0      0.00%     55.97% # Type of FU issued
system.switch_cpus.iq.FU_type_0::FloatDiv            0      0.00%     55.97% # Type of FU issued
system.switch_cpus.iq.FU_type_0::FloatMisc            0      0.00%     55.97% # Type of FU issued
system.switch_cpus.iq.FU_type_0::FloatSqrt            0      0.00%     55.97% # Type of FU issued
system.switch_cpus.iq.FU_type_0::SimdAdd            0      0.00%     55.97% # Type of FU issued
system.switch_cpus.iq.FU_type_0::SimdAddAcc            0      0.00%     55.97% # Type of FU issued
system.switch_cpus.iq.FU_type_0::SimdAlu       896321      5.08%     61.05% # Type of FU issued
system.switch_cpus.iq.FU_type_0::SimdCmp            0      0.00%     61.05% # Type of FU issued
system.switch_cpus.iq.FU_type_0::SimdCvt            0      0.00%     61.05% # Type of FU issued
system.switch_cpus.iq.FU_type_0::SimdMisc       895777      5.08%     66.13% # Type of FU issued
system.switch_cpus.iq.FU_type_0::SimdMult            0      0.00%     66.13% # Type of FU issued
system.switch_cpus.iq.FU_type_0::SimdMultAcc            0      0.00%     66.13% # Type of FU issued
system.switch_cpus.iq.FU_type_0::SimdShift            0      0.00%     66.13% # Type of FU issued
system.switch_cpus.iq.FU_type_0::SimdShiftAcc            0      0.00%     66.13% # Type of FU issued
system.switch_cpus.iq.FU_type_0::SimdDiv            0      0.00%     66.13% # Type of FU issued
system.switch_cpus.iq.FU_type_0::SimdSqrt            0      0.00%     66.13% # Type of FU issued
system.switch_cpus.iq.FU_type_0::SimdFloatAdd      1492135      8.46%     74.59% # Type of FU issued
system.switch_cpus.iq.FU_type_0::SimdFloatAlu            0      0.00%     74.59% # Type of FU issued
system.switch_cpus.iq.FU_type_0::SimdFloatCmp            0      0.00%     74.59% # Type of FU issued
system.switch_cpus.iq.FU_type_0::SimdFloatCvt       746249      4.23%     78.82% # Type of FU issued
system.switch_cpus.iq.FU_type_0::SimdFloatDiv            0      0.00%     78.82% # Type of FU issued
system.switch_cpus.iq.FU_type_0::SimdFloatMisc            0      0.00%     78.82% # Type of FU issued
system.switch_cpus.iq.FU_type_0::SimdFloatMult      1044863      5.92%     84.74% # Type of FU issued
system.switch_cpus.iq.FU_type_0::SimdFloatMultAcc            0      0.00%     84.74% # Type of FU issued
system.switch_cpus.iq.FU_type_0::SimdFloatSqrt            0      0.00%     84.74% # Type of FU issued
system.switch_cpus.iq.FU_type_0::SimdReduceAdd            0      0.00%     84.74% # Type of FU issued
system.switch_cpus.iq.FU_type_0::SimdReduceAlu            0      0.00%     84.74% # Type of FU issued
system.switch_cpus.iq.FU_type_0::SimdReduceCmp            0      0.00%     84.74% # Type of FU issued
system.switch_cpus.iq.FU_type_0::SimdFloatReduceAdd            0      0.00%     84.74% # Type of FU issued
system.switch_cpus.iq.FU_type_0::SimdFloatReduceCmp            0      0.00%     84.74% # Type of FU issued
system.switch_cpus.iq.FU_type_0::SimdAes            0      0.00%     84.74% # Type of FU issued
system.switch_cpus.iq.FU_type_0::SimdAesMix            0      0.00%     84.74% # Type of FU issued
system.switch_cpus.iq.FU_type_0::SimdSha1Hash            0      0.00%     84.74% # Type of FU issued
system.switch_cpus.iq.FU_type_0::SimdSha1Hash2            0      0.00%     84.74% # Type of FU issued
system.switch_cpus.iq.FU_type_0::SimdSha256Hash            0      0.00%     84.74% # Type of FU issued
system.switch_cpus.iq.FU_type_0::SimdSha256Hash2            0      0.00%     84.74% # Type of FU issued
system.switch_cpus.iq.FU_type_0::SimdShaSigma2            0      0.00%     84.74% # Type of FU issued
system.switch_cpus.iq.FU_type_0::SimdShaSigma3            0      0.00%     84.74% # Type of FU issued
system.switch_cpus.iq.FU_type_0::SimdPredAlu            0      0.00%     84.74% # Type of FU issued
system.switch_cpus.iq.FU_type_0::MemRead       599670      3.40%     88.14% # Type of FU issued
system.switch_cpus.iq.FU_type_0::MemWrite       449536      2.55%     90.69% # Type of FU issued
system.switch_cpus.iq.FU_type_0::FloatMemRead      1642818      9.31%    100.00% # Type of FU issued
system.switch_cpus.iq.FU_type_0::FloatMemWrite          127      0.00%    100.00% # Type of FU issued
system.switch_cpus.iq.FU_type_0::IprAccess            0      0.00%    100.00% # Type of FU issued
system.switch_cpus.iq.FU_type_0::InstPrefetch            0      0.00%    100.00% # Type of FU issued
system.switch_cpus.iq.FU_type_0::total       17641833                       # Type of FU issued
system.switch_cpus.iq.fp_alu_accesses         7763811                       # Number of floating point alu accesses
system.switch_cpus.iq.fp_inst_queue_reads     15527615                       # Number of floating instruction queue reads
system.switch_cpus.iq.fp_inst_queue_wakeup_accesses      7763471                       # Number of floating instruction queue wakeup accesses
system.switch_cpus.iq.fp_inst_queue_writes      7778012                       # Number of floating instruction queue writes
system.switch_cpus.iq.fu_busy_cnt              147738                       # FU busy when requested
system.switch_cpus.iq.fu_busy_rate           0.008374                       # FU busy rate (busy events/executed inst)
system.switch_cpus.iq.fu_full::No_OpClass            0      0.00%      0.00% # attempts to use FU when none available
system.switch_cpus.iq.fu_full::IntAlu          147508     99.84%     99.84% # attempts to use FU when none available
system.switch_cpus.iq.fu_full::IntMult              0      0.00%     99.84% # attempts to use FU when none available
system.switch_cpus.iq.fu_full::IntDiv               0      0.00%     99.84% # attempts to use FU when none available
system.switch_cpus.iq.fu_full::FloatAdd             0      0.00%     99.84% # attempts to use FU when none available
system.switch_cpus.iq.fu_full::FloatCmp             0      0.00%     99.84% # attempts to use FU when none available
system.switch_cpus.iq.fu_full::FloatCvt             0      0.00%     99.84% # attempts to use FU when none available
system.switch_cpus.iq.fu_full::FloatMult            0      0.00%     99.84% # attempts to use FU when none available
system.switch_cpus.iq.fu_full::FloatMultAcc            0      0.00%     99.84% # attempts to use FU when none available
system.switch_cpus.iq.fu_full::FloatDiv             0      0.00%     99.84% # attempts to use FU when none available
system.switch_cpus.iq.fu_full::FloatMisc            0      0.00%     99.84% # attempts to use FU when none available
system.switch_cpus.iq.fu_full::FloatSqrt            0      0.00%     99.84% # attempts to use FU when none available
system.switch_cpus.iq.fu_full::SimdAdd              0      0.00%     99.84% # attempts to use FU when none available
system.switch_cpus.iq.fu_full::SimdAddAcc            0      0.00%     99.84% # attempts to use FU when none available
system.switch_cpus.iq.fu_full::SimdAlu              0      0.00%     99.84% # attempts to use FU when none available
system.switch_cpus.iq.fu_full::SimdCmp              0      0.00%     99.84% # attempts to use FU when none available
system.switch_cpus.iq.fu_full::SimdCvt              0      0.00%     99.84% # attempts to use FU when none available
system.switch_cpus.iq.fu_full::SimdMisc             0      0.00%     99.84% # attempts to use FU when none available
system.switch_cpus.iq.fu_full::SimdMult             0      0.00%     99.84% # attempts to use FU when none available
system.switch_cpus.iq.fu_full::SimdMultAcc            0      0.00%     99.84% # attempts to use FU when none available
system.switch_cpus.iq.fu_full::SimdShift            0      0.00%     99.84% # attempts to use FU when none available
system.switch_cpus.iq.fu_full::SimdShiftAcc            0      0.00%     99.84% # attempts to use FU when none available
system.switch_cpus.iq.fu_full::SimdDiv              0      0.00%     99.84% # attempts to use FU when none available
system.switch_cpus.iq.fu_full::SimdSqrt             0      0.00%     99.84% # attempts to use FU when none available
system.switch_cpus.iq.fu_full::SimdFloatAdd            0      0.00%     99.84% # attempts to use FU when none available
system.switch_cpus.iq.fu_full::SimdFloatAlu            0      0.00%     99.84% # attempts to use FU when none available
system.switch_cpus.iq.fu_full::SimdFloatCmp            0      0.00%     99.84% # attempts to use FU when none available
system.switch_cpus.iq.fu_full::SimdFloatCvt            0      0.00%     99.84% # attempts to use FU when none available
system.switch_cpus.iq.fu_full::SimdFloatDiv            0      0.00%     99.84% # attempts to use FU when none available
system.switch_cpus.iq.fu_full::SimdFloatMisc            0      0.00%     99.84% # attempts to use FU when none available
system.switch_cpus.iq.fu_full::SimdFloatMult            0      0.00%     99.84% # attempts to use FU when none available
system.switch_cpus.iq.fu_full::SimdFloatMultAcc            0      0.00%     99.84% # attempts to use FU when none available
system.switch_cpus.iq.fu_full::SimdFloatSqrt            0      0.00%     99.84% # attempts to use FU when none available
system.switch_cpus.iq.fu_full::SimdReduceAdd            0      0.00%     99.84% # attempts to use FU when none available
system.switch_cpus.iq.fu_full::SimdReduceAlu            0      0.00%     99.84% # attempts to use FU when none available
system.switch_cpus.iq.fu_full::SimdReduceCmp            0      0.00%     99.84% # attempts to use FU when none available
system.switch_cpus.iq.fu_full::SimdFloatReduceAdd            0      0.00%     99.84% # attempts to use FU when none available
system.switch_cpus.iq.fu_full::SimdFloatReduceCmp            0      0.00%     99.84% # attempts to use FU when none available
system.switch_cpus.iq.fu_full::SimdAes              0      0.00%     99.84% # attempts to use FU when none available
system.switch_cpus.iq.fu_full::SimdAesMix            0      0.00%     99.84% # attempts to use FU when none available
system.switch_cpus.iq.fu_full::SimdSha1Hash            0      0.00%     99.84% # attempts to use FU when none available
system.switch_cpus.iq.fu_full::SimdSha1Hash2            0      0.00%     99.84% # attempts to use FU when none available
system.switch_cpus.iq.fu_full::SimdSha256Hash            0      0.00%     99.84% # attempts to use FU when none available
system.switch_cpus.iq.fu_full::SimdSha256Hash2            0      0.00%     99.84% # attempts to use FU when none available
system.switch_cpus.iq.fu_full::SimdShaSigma2            0      0.00%     99.84% # attempts to use FU when none available
system.switch_cpus.iq.fu_full::SimdShaSigma3            0      0.00%     99.84% # attempts to use FU when none available
system.switch_cpus.iq.fu_full::SimdPredAlu            0      0.00%     99.84% # attempts to use FU when none available
system.switch_cpus.iq.fu_full::MemRead            211      0.14%     99.99% # attempts to use FU when none available
system.switch_cpus.iq.fu_full::MemWrite             6      0.00%     99.99% # attempts to use FU when none available
system.switch_cpus.iq.fu_full::FloatMemRead            1      0.00%     99.99% # attempts to use FU when none available
system.switch_cpus.iq.fu_full::FloatMemWrite           12      0.01%    100.00% # attempts to use FU when none available
system.switch_cpus.iq.fu_full::IprAccess            0      0.00%    100.00% # attempts to use FU when none available
system.switch_cpus.iq.fu_full::InstPrefetch            0      0.00%    100.00% # attempts to use FU when none available
system.switch_cpus.iq.int_alu_accesses        9726491                       # Number of integer alu accesses
system.switch_cpus.iq.int_inst_queue_reads     24927422                       # Number of integer instruction queue reads
system.switch_cpus.iq.int_inst_queue_wakeup_accesses      9876527                       # Number of integer instruction queue wakeup accesses
system.switch_cpus.iq.int_inst_queue_writes      9908601                       # Number of integer instruction queue writes
system.switch_cpus.iq.iqInstsAdded           17649872                       # Number of instructions added to the IQ (excludes non-spec)
system.switch_cpus.iq.iqInstsIssued          17641833                       # Number of instructions issued
system.switch_cpus.iq.iqSquashedInstsExamined        36733                       # Number of squashed instructions iterated over during squash; mainly for profiling
system.switch_cpus.iq.iqSquashedInstsIssued           33                       # Number of squashed instructions issued
system.switch_cpus.iq.iqSquashedOperandsExamined        27198                       # Number of squashed operands that are examined and possibly removed from graph
system.switch_cpus.iq.issued_per_cycle::samples      5023602                       # Number of insts issued each cycle
system.switch_cpus.iq.issued_per_cycle::mean     3.511790                       # Number of insts issued each cycle
system.switch_cpus.iq.issued_per_cycle::stdev     1.969101                       # Number of insts issued each cycle
system.switch_cpus.iq.issued_per_cycle::underflows            0      0.00%      0.00% # Number of insts issued each cycle
system.switch_cpus.iq.issued_per_cycle::0       128370      2.56%      2.56% # Number of insts issued each cycle
system.switch_cpus.iq.issued_per_cycle::1       675926     13.46%     16.01% # Number of insts issued each cycle
system.switch_cpus.iq.issued_per_cycle::2      1041813     20.74%     36.75% # Number of insts issued each cycle
system.switch_cpus.iq.issued_per_cycle::3       858508     17.09%     53.84% # Number of insts issued each cycle
system.switch_cpus.iq.issued_per_cycle::4       856591     17.05%     70.89% # Number of insts issued each cycle
system.switch_cpus.iq.issued_per_cycle::5       454695      9.05%     79.94% # Number of insts issued each cycle
system.switch_cpus.iq.issued_per_cycle::6       558749     11.12%     91.06% # Number of insts issued each cycle
system.switch_cpus.iq.issued_per_cycle::7       337176      6.71%     97.78% # Number of insts issued each cycle
system.switch_cpus.iq.issued_per_cycle::8       111774      2.22%    100.00% # Number of insts issued each cycle
system.switch_cpus.iq.issued_per_cycle::overflows            0      0.00%    100.00% # Number of insts issued each cycle
system.switch_cpus.iq.issued_per_cycle::min_value            0                       # Number of insts issued each cycle
system.switch_cpus.iq.issued_per_cycle::max_value            8                       # Number of insts issued each cycle
system.switch_cpus.iq.issued_per_cycle::total      5023602                       # Number of insts issued each cycle
system.switch_cpus.iq.rate                   3.511581                       # Inst issue rate
system.switch_cpus.iq.vec_alu_accesses              0                       # Number of vector alu accesses
system.switch_cpus.iq.vec_inst_queue_reads            0                       # Number of vector instruction queue reads
system.switch_cpus.iq.vec_inst_queue_wakeup_accesses            0                       # Number of vector instruction queue wakeup accesses
system.switch_cpus.iq.vec_inst_queue_writes            0                       # Number of vector instruction queue writes
system.switch_cpus.memDep0.conflictingLoads           13                       # Number of conflicting loads.
system.switch_cpus.memDep0.conflictingStores           48                       # Number of conflicting stores.
system.switch_cpus.memDep0.insertedLoads      2242526                       # Number of loads inserted to the mem dependence unit.
system.switch_cpus.memDep0.insertedStores       450151                       # Number of stores inserted to the mem dependence unit.
system.switch_cpus.misc_regfile_reads         5982295                       # number of misc regfile reads
system.switch_cpus.numCycles                  5023900                       # number of cpu cycles simulated
system.switch_cpus.numWorkItemsCompleted            0                       # number of work items this cpu completed
system.switch_cpus.numWorkItemsStarted              0                       # number of work items this cpu started
system.switch_cpus.timesIdled                       4                       # Number of times that the entire CPU went into an idle state and unscheduled itself
system.tol2bus.snoop_filter.hit_multi_requests            7                       # Number of requests hitting in the snoop filter with multiple (>1) holders of the requested data.
system.tol2bus.snoop_filter.hit_multi_snoops            0                       # Number of snoops hitting in the snoop filter with multiple (>1) holders of the requested data.
system.tol2bus.snoop_filter.hit_single_requests         9671                       # Number of requests hitting in the snoop filter with a single holder of the requested data.
system.tol2bus.snoop_filter.hit_single_snoops          979                       # Number of snoops hitting in the snoop filter with a single holder of the requested data.
system.tol2bus.snoop_filter.tot_requests        19345                       # Total number of requests made to the snoop filter.
system.tol2bus.snoop_filter.tot_snoops            979                       # Total number of snoops made to the snoop filter.
system.clk_domain.clock                          1000                       # Clock period in ticks
system.cpu.branchPred.lookups                       0                       # Number of BP lookups
system.cpu.branchPred.condPredicted                 0                       # Number of conditional branches predicted
system.cpu.branchPred.condIncorrect                 0                       # Number of conditional branches incorrect
system.cpu.branchPred.BTBLookups                    0                       # Number of BTB lookups
system.cpu.branchPred.BTBHits                       0                       # Number of BTB hits
system.cpu.branchPred.BTBHitPct                   nan                       # BTB Hit Percentage
system.cpu.branchPred.RASUsed                       0                       # Number of times the RAS was used to get a target.
system.cpu.branchPred.RASIncorrect                  0                       # Number of incorrect RAS predictions.
system.cpu.branchPred.indirectLookups               0                       # Number of indirect predictor lookups.
system.cpu.branchPred.indirectHits                  0                       # Number of indirect target hits.
system.cpu.branchPred.indirectMisses                0                       # Number of indirect misses.
system.cpu.branchPred.indirectMispredicted            0                       # Number of mispredicted indirect branches.
system.cpu.dcache.demand_hits::.switch_cpus.data      2531654                       # number of demand (read+write) hits
system.cpu.dcache.demand_hits::total          2531654                       # number of demand (read+write) hits
system.cpu.dcache.overall_hits::.switch_cpus.data      2531654                       # number of overall hits
system.cpu.dcache.overall_hits::total         2531654                       # number of overall hits
system.cpu.dcache.demand_misses::.switch_cpus.data         9778                       # number of demand (read+write) misses
system.cpu.dcache.demand_misses::total           9778                       # number of demand (read+write) misses
system.cpu.dcache.overall_misses::.switch_cpus.data         9778                       # number of overall misses
system.cpu.dcache.overall_misses::total          9778                       # number of overall misses
system.cpu.dcache.demand_miss_latency::.switch_cpus.data    754668995                       # number of demand (read+write) miss cycles
system.cpu.dcache.demand_miss_latency::total    754668995                       # number of demand (read+write) miss cycles
system.cpu.dcache.overall_miss_latency::.switch_cpus.data    754668995                       # number of overall miss cycles
system.cpu.dcache.overall_miss_latency::total    754668995                       # number of overall miss cycles
system.cpu.dcache.demand_accesses::.switch_cpus.data      2541432                       # number of demand (read+write) accesses
system.cpu.dcache.demand_accesses::total      2541432                       # number of demand (read+write) accesses
system.cpu.dcache.overall_accesses::.switch_cpus.data      2541432                       # number of overall (read+write) accesses
system.cpu.dcache.overall_accesses::total      2541432                       # number of overall (read+write) accesses
system.cpu.dcache.demand_miss_rate::.switch_cpus.data     0.003847                       # miss rate for demand accesses
system.cpu.dcache.demand_miss_rate::total     0.003847                       # miss rate for demand accesses
system.cpu.dcache.overall_miss_rate::.switch_cpus.data     0.003847                       # miss rate for overall accesses
system.cpu.dcache.overall_miss_rate::total     0.003847                       # miss rate for overall accesses
system.cpu.dcache.demand_avg_miss_latency::.switch_cpus.data 77180.302209                       # average overall miss latency
system.cpu.dcache.demand_avg_miss_latency::total 77180.302209                       # average overall miss latency
system.cpu.dcache.overall_avg_miss_latency::.switch_cpus.data 77180.302209                       # average overall miss latency
system.cpu.dcache.overall_avg_miss_latency::total 77180.302209                       # average overall miss latency
system.cpu.dcache.blocked_cycles::no_mshrs          615                       # number of cycles access was blocked
system.cpu.dcache.blocked_cycles::no_targets            0                       # number of cycles access was blocked
system.cpu.dcache.blocked::no_mshrs                92                       # number of cycles access was blocked
system.cpu.dcache.blocked::no_targets               0                       # number of cycles access was blocked
system.cpu.dcache.avg_blocked_cycles::no_mshrs     6.684783                       # average number of cycles each access was blocked
system.cpu.dcache.avg_blocked_cycles::no_targets          nan                       # average number of cycles each access was blocked
system.cpu.dcache.writebacks::.writebacks         9563                       # number of writebacks
system.cpu.dcache.writebacks::total              9563                       # number of writebacks
system.cpu.dcache.demand_mshr_hits::.switch_cpus.data          133                       # number of demand (read+write) MSHR hits
system.cpu.dcache.demand_mshr_hits::total          133                       # number of demand (read+write) MSHR hits
system.cpu.dcache.overall_mshr_hits::.switch_cpus.data          133                       # number of overall MSHR hits
system.cpu.dcache.overall_mshr_hits::total          133                       # number of overall MSHR hits
system.cpu.dcache.demand_mshr_misses::.switch_cpus.data         9645                       # number of demand (read+write) MSHR misses
system.cpu.dcache.demand_mshr_misses::total         9645                       # number of demand (read+write) MSHR misses
system.cpu.dcache.overall_mshr_misses::.switch_cpus.data         9645                       # number of overall MSHR misses
system.cpu.dcache.overall_mshr_misses::total         9645                       # number of overall MSHR misses
system.cpu.dcache.demand_mshr_miss_latency::.switch_cpus.data    743470495                       # number of demand (read+write) MSHR miss cycles
system.cpu.dcache.demand_mshr_miss_latency::total    743470495                       # number of demand (read+write) MSHR miss cycles
system.cpu.dcache.overall_mshr_miss_latency::.switch_cpus.data    743470495                       # number of overall MSHR miss cycles
system.cpu.dcache.overall_mshr_miss_latency::total    743470495                       # number of overall MSHR miss cycles
system.cpu.dcache.demand_mshr_miss_rate::.switch_cpus.data     0.003795                       # mshr miss rate for demand accesses
system.cpu.dcache.demand_mshr_miss_rate::total     0.003795                       # mshr miss rate for demand accesses
system.cpu.dcache.overall_mshr_miss_rate::.switch_cpus.data     0.003795                       # mshr miss rate for overall accesses
system.cpu.dcache.overall_mshr_miss_rate::total     0.003795                       # mshr miss rate for overall accesses
system.cpu.dcache.demand_avg_mshr_miss_latency::.switch_cpus.data 77083.514256                       # average overall mshr miss latency
system.cpu.dcache.demand_avg_mshr_miss_latency::total 77083.514256                       # average overall mshr miss latency
system.cpu.dcache.overall_avg_mshr_miss_latency::.switch_cpus.data 77083.514256                       # average overall mshr miss latency
system.cpu.dcache.overall_avg_mshr_miss_latency::total 77083.514256                       # average overall mshr miss latency
system.cpu.dcache.replacements                   9644                       # number of replacements
system.cpu.dcache.ReadReq_hits::.switch_cpus.data      2092318                       # number of ReadReq hits
system.cpu.dcache.ReadReq_hits::total         2092318                       # number of ReadReq hits
system.cpu.dcache.ReadReq_misses::.switch_cpus.data          359                       # number of ReadReq misses
system.cpu.dcache.ReadReq_misses::total           359                       # number of ReadReq misses
system.cpu.dcache.ReadReq_miss_latency::.switch_cpus.data      4800500                       # number of ReadReq miss cycles
system.cpu.dcache.ReadReq_miss_latency::total      4800500                       # number of ReadReq miss cycles
system.cpu.dcache.ReadReq_accesses::.switch_cpus.data      2092677                       # number of ReadReq accesses(hits+misses)
system.cpu.dcache.ReadReq_accesses::total      2092677                       # number of ReadReq accesses(hits+misses)
system.cpu.dcache.ReadReq_miss_rate::.switch_cpus.data     0.000172                       # miss rate for ReadReq accesses
system.cpu.dcache.ReadReq_miss_rate::total     0.000172                       # miss rate for ReadReq accesses
system.cpu.dcache.ReadReq_avg_miss_latency::.switch_cpus.data 13371.866295                       # average ReadReq miss latency
system.cpu.dcache.ReadReq_avg_miss_latency::total 13371.866295                       # average ReadReq miss latency
system.cpu.dcache.ReadReq_mshr_hits::.switch_cpus.data          133                       # number of ReadReq MSHR hits
system.cpu.dcache.ReadReq_mshr_hits::total          133                       # number of ReadReq MSHR hits
system.cpu.dcache.ReadReq_mshr_misses::.switch_cpus.data          226                       # number of ReadReq MSHR misses
system.cpu.dcache.ReadReq_mshr_misses::total          226                       # number of ReadReq MSHR misses
system.cpu.dcache.ReadReq_mshr_miss_latency::.switch_cpus.data      3020000                       # number of ReadReq MSHR miss cycles
system.cpu.dcache.ReadReq_mshr_miss_latency::total      3020000                       # number of ReadReq MSHR miss cycles
system.cpu.dcache.ReadReq_mshr_miss_rate::.switch_cpus.data     0.000108                       # mshr miss rate for ReadReq accesses
system.cpu.dcache.ReadReq_mshr_miss_rate::total     0.000108                       # mshr miss rate for ReadReq accesses
system.cpu.dcache.ReadReq_avg_mshr_miss_latency::.switch_cpus.data 13362.831858                       # average ReadReq mshr miss latency
system.cpu.dcache.ReadReq_avg_mshr_miss_latency::total 13362.831858                       # average ReadReq mshr miss latency
system.cpu.dcache.WriteReq_hits::.switch_cpus.data       439336                       # number of WriteReq hits
system.cpu.dcache.WriteReq_hits::total         439336                       # number of WriteReq hits
system.cpu.dcache.WriteReq_misses::.switch_cpus.data         9419                       # number of WriteReq misses
system.cpu.dcache.WriteReq_misses::total         9419                       # number of WriteReq misses
system.cpu.dcache.WriteReq_miss_latency::.switch_cpus.data    749868495                       # number of WriteReq miss cycles
system.cpu.dcache.WriteReq_miss_latency::total    749868495                       # number of WriteReq miss cycles
system.cpu.dcache.WriteReq_accesses::.switch_cpus.data       448755                       # number of WriteReq accesses(hits+misses)
system.cpu.dcache.WriteReq_accesses::total       448755                       # number of WriteReq accesses(hits+misses)
system.cpu.dcache.WriteReq_miss_rate::.switch_cpus.data     0.020989                       # miss rate for WriteReq accesses
system.cpu.dcache.WriteReq_miss_rate::total     0.020989                       # miss rate for WriteReq accesses
system.cpu.dcache.WriteReq_avg_miss_latency::.switch_cpus.data 79612.325618                       # average WriteReq miss latency
system.cpu.dcache.WriteReq_avg_miss_latency::total 79612.325618                       # average WriteReq miss latency
system.cpu.dcache.WriteReq_mshr_misses::.switch_cpus.data         9419                       # number of WriteReq MSHR misses
system.cpu.dcache.WriteReq_mshr_misses::total         9419                       # number of WriteReq MSHR misses
system.cpu.dcache.WriteReq_mshr_miss_latency::.switch_cpus.data    740450495                       # number of WriteReq MSHR miss cycles
system.cpu.dcache.WriteReq_mshr_miss_latency::total    740450495                       # number of WriteReq MSHR miss cycles
system.cpu.dcache.WriteReq_mshr_miss_rate::.switch_cpus.data     0.020989                       # mshr miss rate for WriteReq accesses
system.cpu.dcache.WriteReq_mshr_miss_rate::total     0.020989                       # mshr miss rate for WriteReq accesses
system.cpu.dcache.WriteReq_avg_mshr_miss_latency::.switch_cpus.data 78612.431787                       # average WriteReq mshr miss latency
system.cpu.dcache.WriteReq_avg_mshr_miss_latency::total 78612.431787                       # average WriteReq mshr miss latency
system.cpu.dcache.power_state.pwrStateResidencyTicks::UNDEFINED   3893724000                       # Cumulative time (in ticks) in various power states
system.cpu.dcache.tags.tagsinuse                 1024                       # Cycle average of tags in use
system.cpu.dcache.tags.total_refs             2717531                       # Total number of references to valid blocks.
system.cpu.dcache.tags.sampled_refs             10668                       # Sample count of references to valid blocks.
system.cpu.dcache.tags.avg_refs            254.736689                       # Average number of references to valid blocks.
system.cpu.dcache.tags.warmup_cycle                 0                       # Cycle when the warmup percentage was hit.
system.cpu.dcache.tags.occ_blocks::.cpu.data    65.550631                       # Average occupied blocks per requestor
system.cpu.dcache.tags.occ_blocks::.switch_cpus.data   958.449369                       # Average occupied blocks per requestor
system.cpu.dcache.tags.occ_percent::.cpu.data     0.064014                       # Average percentage of cache occupancy
system.cpu.dcache.tags.occ_percent::.switch_cpus.data     0.935986                       # Average percentage of cache occupancy
system.cpu.dcache.tags.occ_percent::total            1                       # Average percentage of cache occupancy
system.cpu.dcache.tags.occ_task_id_blocks::1024         1024                       # Occupied blocks per task id
system.cpu.dcache.tags.age_task_id_blocks_1024::0           37                       # Occupied blocks per task id
system.cpu.dcache.tags.age_task_id_blocks_1024::1          375                       # Occupied blocks per task id
system.cpu.dcache.tags.age_task_id_blocks_1024::2          602                       # Occupied blocks per task id
system.cpu.dcache.tags.age_task_id_blocks_1024::3           10                       # Occupied blocks per task id
system.cpu.dcache.tags.occ_task_id_percent::1024            1                       # Percentage of cache occupancy per task id
system.cpu.dcache.tags.tag_accesses           5092508                       # Number of tag accesses
system.cpu.dcache.tags.data_accesses          5092508                       # Number of data accesses
system.cpu.dcache.tags.power_state.pwrStateResidencyTicks::UNDEFINED   3893724000                       # Cumulative time (in ticks) in various power states
system.cpu.dtb.rdAccesses                           0                       # TLB accesses on read requests
system.cpu.dtb.wrAccesses                           0                       # TLB accesses on write requests
system.cpu.dtb.rdMisses                             0                       # TLB misses on read requests
system.cpu.dtb.wrMisses                             0                       # TLB misses on write requests
system.cpu.dtb.walker.power_state.pwrStateResidencyTicks::UNDEFINED   3893724000                       # Cumulative time (in ticks) in various power states
system.cpu.dtb_walker_cache.blocked_cycles::no_mshrs            0                       # number of cycles access was blocked
system.cpu.dtb_walker_cache.blocked_cycles::no_targets            0                       # number of cycles access was blocked
system.cpu.dtb_walker_cache.blocked::no_mshrs            0                       # number of cycles access was blocked
system.cpu.dtb_walker_cache.blocked::no_targets            0                       # number of cycles access was blocked
system.cpu.dtb_walker_cache.avg_blocked_cycles::no_mshrs          nan                       # average number of cycles each access was blocked
system.cpu.dtb_walker_cache.avg_blocked_cycles::no_targets          nan                       # average number of cycles each access was blocked
system.cpu.dtb_walker_cache.replacements            0                       # number of replacements
system.cpu.dtb_walker_cache.power_state.pwrStateResidencyTicks::UNDEFINED   3893724000                       # Cumulative time (in ticks) in various power states
system.cpu.dtb_walker_cache.tags.tagsinuse            0                       # Cycle average of tags in use
system.cpu.dtb_walker_cache.tags.total_refs            0                       # Total number of references to valid blocks.
system.cpu.dtb_walker_cache.tags.sampled_refs            0                       # Sample count of references to valid blocks.
system.cpu.dtb_walker_cache.tags.avg_refs          nan                       # Average number of references to valid blocks.
system.cpu.dtb_walker_cache.tags.warmup_cycle            0                       # Cycle when the warmup percentage was hit.
system.cpu.dtb_walker_cache.tags.tag_accesses            0                       # Number of tag accesses
system.cpu.dtb_walker_cache.tags.data_accesses            0                       # Number of data accesses
system.cpu.dtb_walker_cache.tags.power_state.pwrStateResidencyTicks::UNDEFINED   3893724000                       # Cumulative time (in ticks) in various power states
system.cpu.icache.demand_hits::.switch_cpus.inst      1199575                       # number of demand (read+write) hits
system.cpu.icache.demand_hits::total          1199575                       # number of demand (read+write) hits
system.cpu.icache.overall_hits::.switch_cpus.inst      1199575                       # number of overall hits
system.cpu.icache.overall_hits::total         1199575                       # number of overall hits
system.cpu.icache.demand_misses::.switch_cpus.inst           40                       # number of demand (read+write) misses
system.cpu.icache.demand_misses::total             40                       # number of demand (read+write) misses
system.cpu.icache.overall_misses::.switch_cpus.inst           40                       # number of overall misses
system.cpu.icache.overall_misses::total            40                       # number of overall misses
system.cpu.icache.demand_miss_latency::.switch_cpus.inst      2582500                       # number of demand (read+write) miss cycles
system.cpu.icache.demand_miss_latency::total      2582500                       # number of demand (read+write) miss cycles
system.cpu.icache.overall_miss_latency::.switch_cpus.inst      2582500                       # number of overall miss cycles
system.cpu.icache.overall_miss_latency::total      2582500                       # number of overall miss cycles
system.cpu.icache.demand_accesses::.switch_cpus.inst      1199615                       # number of demand (read+write) accesses
system.cpu.icache.demand_accesses::total      1199615                       # number of demand (read+write) accesses
system.cpu.icache.overall_accesses::.switch_cpus.inst      1199615                       # number of overall (read+write) accesses
system.cpu.icache.overall_accesses::total      1199615                       # number of overall (read+write) accesses
system.cpu.icache.demand_miss_rate::.switch_cpus.inst     0.000033                       # miss rate for demand accesses
system.cpu.icache.demand_miss_rate::total     0.000033                       # miss rate for demand accesses
system.cpu.icache.overall_miss_rate::.switch_cpus.inst     0.000033                       # miss rate for overall accesses
system.cpu.icache.overall_miss_rate::total     0.000033                       # miss rate for overall accesses
system.cpu.icache.demand_avg_miss_latency::.switch_cpus.inst 64562.500000                       # average overall miss latency
system.cpu.icache.demand_avg_miss_latency::total 64562.500000                       # average overall miss latency
system.cpu.icache.overall_avg_miss_latency::.switch_cpus.inst 64562.500000                       # average overall miss latency
system.cpu.icache.overall_avg_miss_latency::total 64562.500000                       # average overall miss latency
system.cpu.icache.blocked_cycles::no_mshrs            0                       # number of cycles access was blocked
system.cpu.icache.blocked_cycles::no_targets            0                       # number of cycles access was blocked
system.cpu.icache.blocked::no_mshrs                 0                       # number of cycles access was blocked
system.cpu.icache.blocked::no_targets               0                       # number of cycles access was blocked
system.cpu.icache.avg_blocked_cycles::no_mshrs          nan                       # average number of cycles each access was blocked
system.cpu.icache.avg_blocked_cycles::no_targets          nan                       # average number of cycles each access was blocked
system.cpu.icache.writebacks::.writebacks           26                       # number of writebacks
system.cpu.icache.writebacks::total                26                       # number of writebacks
system.cpu.icache.demand_mshr_hits::.switch_cpus.inst           10                       # number of demand (read+write) MSHR hits
system.cpu.icache.demand_mshr_hits::total           10                       # number of demand (read+write) MSHR hits
system.cpu.icache.overall_mshr_hits::.switch_cpus.inst           10                       # number of overall MSHR hits
system.cpu.icache.overall_mshr_hits::total           10                       # number of overall MSHR hits
system.cpu.icache.demand_mshr_misses::.switch_cpus.inst           30                       # number of demand (read+write) MSHR misses
system.cpu.icache.demand_mshr_misses::total           30                       # number of demand (read+write) MSHR misses
system.cpu.icache.overall_mshr_misses::.switch_cpus.inst           30                       # number of overall MSHR misses
system.cpu.icache.overall_mshr_misses::total           30                       # number of overall MSHR misses
system.cpu.icache.demand_mshr_miss_latency::.switch_cpus.inst      1994000                       # number of demand (read+write) MSHR miss cycles
system.cpu.icache.demand_mshr_miss_latency::total      1994000                       # number of demand (read+write) MSHR miss cycles
system.cpu.icache.overall_mshr_miss_latency::.switch_cpus.inst      1994000                       # number of overall MSHR miss cycles
system.cpu.icache.overall_mshr_miss_latency::total      1994000                       # number of overall MSHR miss cycles
system.cpu.icache.demand_mshr_miss_rate::.switch_cpus.inst     0.000025                       # mshr miss rate for demand accesses
system.cpu.icache.demand_mshr_miss_rate::total     0.000025                       # mshr miss rate for demand accesses
system.cpu.icache.overall_mshr_miss_rate::.switch_cpus.inst     0.000025                       # mshr miss rate for overall accesses
system.cpu.icache.overall_mshr_miss_rate::total     0.000025                       # mshr miss rate for overall accesses
system.cpu.icache.demand_avg_mshr_miss_latency::.switch_cpus.inst 66466.666667                       # average overall mshr miss latency
system.cpu.icache.demand_avg_mshr_miss_latency::total 66466.666667                       # average overall mshr miss latency
system.cpu.icache.overall_avg_mshr_miss_latency::.switch_cpus.inst 66466.666667                       # average overall mshr miss latency
system.cpu.icache.overall_avg_mshr_miss_latency::total 66466.666667                       # average overall mshr miss latency
system.cpu.icache.replacements                     26                       # number of replacements
system.cpu.icache.ReadReq_hits::.switch_cpus.inst      1199575                       # number of ReadReq hits
system.cpu.icache.ReadReq_hits::total         1199575                       # number of ReadReq hits
system.cpu.icache.ReadReq_misses::.switch_cpus.inst           40                       # number of ReadReq misses
system.cpu.icache.ReadReq_misses::total            40                       # number of ReadReq misses
system.cpu.icache.ReadReq_miss_latency::.switch_cpus.inst      2582500                       # number of ReadReq miss cycles
system.cpu.icache.ReadReq_miss_latency::total      2582500                       # number of ReadReq miss cycles
system.cpu.icache.ReadReq_accesses::.switch_cpus.inst      1199615                       # number of ReadReq accesses(hits+misses)
system.cpu.icache.ReadReq_accesses::total      1199615                       # number of ReadReq accesses(hits+misses)
system.cpu.icache.ReadReq_miss_rate::.switch_cpus.inst     0.000033                       # miss rate for ReadReq accesses
system.cpu.icache.ReadReq_miss_rate::total     0.000033                       # miss rate for ReadReq accesses
system.cpu.icache.ReadReq_avg_miss_latency::.switch_cpus.inst 64562.500000                       # average ReadReq miss latency
system.cpu.icache.ReadReq_avg_miss_latency::total 64562.500000                       # average ReadReq miss latency
system.cpu.icache.ReadReq_mshr_hits::.switch_cpus.inst           10                       # number of ReadReq MSHR hits
system.cpu.icache.ReadReq_mshr_hits::total           10                       # number of ReadReq MSHR hits
system.cpu.icache.ReadReq_mshr_misses::.switch_cpus.inst           30                       # number of ReadReq MSHR misses
system.cpu.icache.ReadReq_mshr_misses::total           30                       # number of ReadReq MSHR misses
system.cpu.icache.ReadReq_mshr_miss_latency::.switch_cpus.inst      1994000                       # number of ReadReq MSHR miss cycles
system.cpu.icache.ReadReq_mshr_miss_latency::total      1994000                       # number of ReadReq MSHR miss cycles
system.cpu.icache.ReadReq_mshr_miss_rate::.switch_cpus.inst     0.000025                       # mshr miss rate for ReadReq accesses
system.cpu.icache.ReadReq_mshr_miss_rate::total     0.000025                       # mshr miss rate for ReadReq accesses
system.cpu.icache.ReadReq_avg_mshr_miss_latency::.switch_cpus.inst 66466.666667                       # average ReadReq mshr miss latency
system.cpu.icache.ReadReq_avg_mshr_miss_latency::total 66466.666667                       # average ReadReq mshr miss latency
system.cpu.icache.power_state.pwrStateResidencyTicks::UNDEFINED   3893724000                       # Cumulative time (in ticks) in various power states
system.cpu.icache.tags.tagsinuse           973.670597                       # Cycle average of tags in use
system.cpu.icache.tags.total_refs             2335749                       # Total number of references to valid blocks.
system.cpu.icache.tags.sampled_refs              1002                       # Sample count of references to valid blocks.
system.cpu.icache.tags.avg_refs           2331.086826                       # Average number of references to valid blocks.
system.cpu.icache.tags.warmup_cycle                 0                       # Cycle when the warmup percentage was hit.
system.cpu.icache.tags.occ_blocks::.cpu.inst   950.571373                       # Average occupied blocks per requestor
system.cpu.icache.tags.occ_blocks::.switch_cpus.inst    23.099224                       # Average occupied blocks per requestor
system.cpu.icache.tags.occ_percent::.cpu.inst     0.928292                       # Average percentage of cache occupancy
system.cpu.icache.tags.occ_percent::.switch_cpus.inst     0.022558                       # Average percentage of cache occupancy
system.cpu.icache.tags.occ_percent::total     0.950850                       # Average percentage of cache occupancy
system.cpu.icache.tags.occ_task_id_blocks::1024          976                       # Occupied blocks per task id
system.cpu.icache.tags.age_task_id_blocks_1024::1            2                       # Occupied blocks per task id
system.cpu.icache.tags.age_task_id_blocks_1024::2            2                       # Occupied blocks per task id
system.cpu.icache.tags.age_task_id_blocks_1024::3          972                       # Occupied blocks per task id
system.cpu.icache.tags.occ_task_id_percent::1024     0.953125                       # Percentage of cache occupancy per task id
system.cpu.icache.tags.tag_accesses           2399260                       # Number of tag accesses
system.cpu.icache.tags.data_accesses          2399260                       # Number of data accesses
system.cpu.icache.tags.power_state.pwrStateResidencyTicks::UNDEFINED   3893724000                       # Cumulative time (in ticks) in various power states
system.cpu.interrupts.clk_domain.clock           8000                       # Clock period in ticks
system.cpu.itb.rdAccesses                           0                       # TLB accesses on read requests
system.cpu.itb.wrAccesses                           0                       # TLB accesses on write requests
system.cpu.itb.rdMisses                             0                       # TLB misses on read requests
system.cpu.itb.wrMisses                             0                       # TLB misses on write requests
system.cpu.itb.walker.power_state.pwrStateResidencyTicks::UNDEFINED   3893724000                       # Cumulative time (in ticks) in various power states
system.cpu.itb_walker_cache.blocked_cycles::no_mshrs            0                       # number of cycles access was blocked
system.cpu.itb_walker_cache.blocked_cycles::no_targets            0                       # number of cycles access was blocked
system.cpu.itb_walker_cache.blocked::no_mshrs            0                       # number of cycles access was blocked
system.cpu.itb_walker_cache.blocked::no_targets            0                       # number of cycles access was blocked
system.cpu.itb_walker_cache.avg_blocked_cycles::no_mshrs          nan                       # average number of cycles each access was blocked
system.cpu.itb_walker_cache.avg_blocked_cycles::no_targets          nan                       # average number of cycles each access was blocked
system.cpu.itb_walker_cache.replacements            0                       # number of replacements
system.cpu.itb_walker_cache.power_state.pwrStateResidencyTicks::UNDEFINED   3893724000                       # Cumulative time (in ticks) in various power states
system.cpu.itb_walker_cache.tags.tagsinuse            0                       # Cycle average of tags in use
system.cpu.itb_walker_cache.tags.total_refs            0                       # Total number of references to valid blocks.
system.cpu.itb_walker_cache.tags.sampled_refs            0                       # Sample count of references to valid blocks.
system.cpu.itb_walker_cache.tags.avg_refs          nan                       # Average number of references to valid blocks.
system.cpu.itb_walker_cache.tags.warmup_cycle            0                       # Cycle when the warmup percentage was hit.
system.cpu.itb_walker_cache.tags.tag_accesses            0                       # Number of tag accesses
system.cpu.itb_walker_cache.tags.data_accesses            0                       # Number of data accesses
system.cpu.itb_walker_cache.tags.power_state.pwrStateResidencyTicks::UNDEFINED   3893724000                       # Cumulative time (in ticks) in various power states
system.cpu.power_state.pwrStateResidencyTicks::OFF   2511950000                       # Cumulative time (in ticks) in various power states
system.cpu.thread_0.numInsts                        0                       # Number of Instructions committed
system.cpu.thread_0.numOps                          0                       # Number of Ops committed
system.cpu.thread_0.numMemRefs                      0                       # Number of Memory References
system.cpu_clk_domain.clock                       500                       # Clock period in ticks
system.cpu_voltage_domain.voltage                   1                       # Voltage in Volts
system.l2.demand_hits::.switch_cpus.inst            6                       # number of demand (read+write) hits
system.l2.demand_hits::.switch_cpus.data          284                       # number of demand (read+write) hits
system.l2.demand_hits::total                      290                       # number of demand (read+write) hits
system.l2.overall_hits::.switch_cpus.inst            6                       # number of overall hits
system.l2.overall_hits::.switch_cpus.data          284                       # number of overall hits
system.l2.overall_hits::total                     290                       # number of overall hits
system.l2.demand_misses::.switch_cpus.inst           24                       # number of demand (read+write) misses
system.l2.demand_misses::.switch_cpus.data         9361                       # number of demand (read+write) misses
system.l2.demand_misses::total                   9385                       # number of demand (read+write) misses
system.l2.overall_misses::.switch_cpus.inst           24                       # number of overall misses
system.l2.overall_misses::.switch_cpus.data         9361                       # number of overall misses
system.l2.overall_misses::total                  9385                       # number of overall misses
system.l2.demand_miss_latency::.switch_cpus.inst      1881500                       # number of demand (read+write) miss cycles
system.l2.demand_miss_latency::.switch_cpus.data    725877500                       # number of demand (read+write) miss cycles
system.l2.demand_miss_latency::total        727759000                       # number of demand (read+write) miss cycles
system.l2.overall_miss_latency::.switch_cpus.inst      1881500                       # number of overall miss cycles
system.l2.overall_miss_latency::.switch_cpus.data    725877500                       # number of overall miss cycles
system.l2.overall_miss_latency::total       727759000                       # number of overall miss cycles
system.l2.demand_accesses::.switch_cpus.inst           30                       # number of demand (read+write) accesses
system.l2.demand_accesses::.switch_cpus.data         9645                       # number of demand (read+write) accesses
system.l2.demand_accesses::total                 9675                       # number of demand (read+write) accesses
system.l2.overall_accesses::.switch_cpus.inst           30                       # number of overall (read+write) accesses
system.l2.overall_accesses::.switch_cpus.data         9645                       # number of overall (read+write) accesses
system.l2.overall_accesses::total                9675                       # number of overall (read+write) accesses
system.l2.demand_miss_rate::.switch_cpus.inst     0.800000                       # miss rate for demand accesses
system.l2.demand_miss_rate::.switch_cpus.data     0.970555                       # miss rate for demand accesses
system.l2.demand_miss_rate::total            0.970026                       # miss rate for demand accesses
system.l2.overall_miss_rate::.switch_cpus.inst     0.800000                       # miss rate for overall accesses
system.l2.overall_miss_rate::.switch_cpus.data     0.970555                       # miss rate for overall accesses
system.l2.overall_miss_rate::total           0.970026                       # miss rate for overall accesses
system.l2.demand_avg_miss_latency::.switch_cpus.inst 78395.833333                       # average overall miss latency
system.l2.demand_avg_miss_latency::.switch_cpus.data 77542.730478                       # average overall miss latency
system.l2.demand_avg_miss_latency::total 77544.912094                       # average overall miss latency
system.l2.overall_avg_miss_latency::.switch_cpus.inst 78395.833333                       # average overall miss latency
system.l2.overall_avg_miss_latency::.switch_cpus.data 77542.730478                       # average overall miss latency
system.l2.overall_avg_miss_latency::total 77544.912094                       # average overall miss latency
system.l2.blocked_cycles::no_mshrs                  0                       # number of cycles access was blocked
system.l2.blocked_cycles::no_targets                0                       # number of cycles access was blocked
system.l2.blocked::no_mshrs                         0                       # number of cycles access was blocked
system.l2.blocked::no_targets                       0                       # number of cycles access was blocked
system.l2.avg_blocked_cycles::no_mshrs            nan                       # average number of cycles each access was blocked
system.l2.avg_blocked_cycles::no_targets          nan                       # average number of cycles each access was blocked
system.l2.writebacks::.writebacks                3605                       # number of writebacks
system.l2.writebacks::total                      3605                       # number of writebacks
system.l2.demand_mshr_misses::.switch_cpus.inst           24                       # number of demand (read+write) MSHR misses
system.l2.demand_mshr_misses::.switch_cpus.data         9361                       # number of demand (read+write) MSHR misses
system.l2.demand_mshr_misses::total              9385                       # number of demand (read+write) MSHR misses
system.l2.overall_mshr_misses::.switch_cpus.inst           24                       # number of overall MSHR misses
system.l2.overall_mshr_misses::.switch_cpus.data         9361                       # number of overall MSHR misses
system.l2.overall_mshr_misses::total             9385                       # number of overall MSHR misses
system.l2.demand_mshr_miss_latency::.switch_cpus.inst      1641500                       # number of demand (read+write) MSHR miss cycles
system.l2.demand_mshr_miss_latency::.switch_cpus.data    632277500                       # number of demand (read+write) MSHR miss cycles
system.l2.demand_mshr_miss_latency::total    633919000                       # number of demand (read+write) MSHR miss cycles
system.l2.overall_mshr_miss_latency::.switch_cpus.inst      1641500                       # number of overall MSHR miss cycles
system.l2.overall_mshr_miss_latency::.switch_cpus.data    632277500                       # number of overall MSHR miss cycles
system.l2.overall_mshr_miss_latency::total    633919000                       # number of overall MSHR miss cycles
system.l2.demand_mshr_miss_rate::.switch_cpus.inst     0.800000                       # mshr miss rate for demand accesses
system.l2.demand_mshr_miss_rate::.switch_cpus.data     0.970555                       # mshr miss rate for demand accesses
system.l2.demand_mshr_miss_rate::total       0.970026                       # mshr miss rate for demand accesses
system.l2.overall_mshr_miss_rate::.switch_cpus.inst     0.800000                       # mshr miss rate for overall accesses
system.l2.overall_mshr_miss_rate::.switch_cpus.data     0.970555                       # mshr miss rate for overall accesses
system.l2.overall_mshr_miss_rate::total      0.970026                       # mshr miss rate for overall accesses
system.l2.demand_avg_mshr_miss_latency::.switch_cpus.inst 68395.833333                       # average overall mshr miss latency
system.l2.demand_avg_mshr_miss_latency::.switch_cpus.data 67543.798739                       # average overall mshr miss latency
system.l2.demand_avg_mshr_miss_latency::total 67545.977624                       # average overall mshr miss latency
system.l2.overall_avg_mshr_miss_latency::.switch_cpus.inst 68395.833333                       # average overall mshr miss latency
system.l2.overall_avg_mshr_miss_latency::.switch_cpus.data 67543.798739                       # average overall mshr miss latency
system.l2.overall_avg_mshr_miss_latency::total 67545.977624                       # average overall mshr miss latency
system.l2.replacements                           7677                       # number of replacements
system.l2.WritebackDirty_hits::.writebacks         9563                       # number of WritebackDirty hits
system.l2.WritebackDirty_hits::total             9563                       # number of WritebackDirty hits
system.l2.WritebackDirty_accesses::.writebacks         9563                       # number of WritebackDirty accesses(hits+misses)
system.l2.WritebackDirty_accesses::total         9563                       # number of WritebackDirty accesses(hits+misses)
system.l2.WritebackClean_hits::.writebacks           26                       # number of WritebackClean hits
system.l2.WritebackClean_hits::total               26                       # number of WritebackClean hits
system.l2.WritebackClean_accesses::.writebacks           26                       # number of WritebackClean accesses(hits+misses)
system.l2.WritebackClean_accesses::total           26                       # number of WritebackClean accesses(hits+misses)
system.l2.ReadExReq_hits::.switch_cpus.data           61                       # number of ReadExReq hits
system.l2.ReadExReq_hits::total                    61                       # number of ReadExReq hits
system.l2.ReadExReq_misses::.switch_cpus.data         9358                       # number of ReadExReq misses
system.l2.ReadExReq_misses::total                9358                       # number of ReadExReq misses
system.l2.ReadExReq_miss_latency::.switch_cpus.data    725636000                       # number of ReadExReq miss cycles
system.l2.ReadExReq_miss_latency::total     725636000                       # number of ReadExReq miss cycles
system.l2.ReadExReq_accesses::.switch_cpus.data         9419                       # number of ReadExReq accesses(hits+misses)
system.l2.ReadExReq_accesses::total              9419                       # number of ReadExReq accesses(hits+misses)
system.l2.ReadExReq_miss_rate::.switch_cpus.data     0.993524                       # miss rate for ReadExReq accesses
system.l2.ReadExReq_miss_rate::total         0.993524                       # miss rate for ReadExReq accesses
system.l2.ReadExReq_avg_miss_latency::.switch_cpus.data 77541.782432                       # average ReadExReq miss latency
system.l2.ReadExReq_avg_miss_latency::total 77541.782432                       # average ReadExReq miss latency
system.l2.ReadExReq_mshr_misses::.switch_cpus.data         9358                       # number of ReadExReq MSHR misses
system.l2.ReadExReq_mshr_misses::total           9358                       # number of ReadExReq MSHR misses
system.l2.ReadExReq_mshr_miss_latency::.switch_cpus.data    632066000                       # number of ReadExReq MSHR miss cycles
system.l2.ReadExReq_mshr_miss_latency::total    632066000                       # number of ReadExReq MSHR miss cycles
system.l2.ReadExReq_mshr_miss_rate::.switch_cpus.data     0.993524                       # mshr miss rate for ReadExReq accesses
system.l2.ReadExReq_mshr_miss_rate::total     0.993524                       # mshr miss rate for ReadExReq accesses
system.l2.ReadExReq_avg_mshr_miss_latency::.switch_cpus.data 67542.851037                       # average ReadExReq mshr miss latency
system.l2.ReadExReq_avg_mshr_miss_latency::total 67542.851037                       # average ReadExReq mshr miss latency
system.l2.ReadCleanReq_hits::.switch_cpus.inst            6                       # number of ReadCleanReq hits
system.l2.ReadCleanReq_hits::total                  6                       # number of ReadCleanReq hits
system.l2.ReadCleanReq_misses::.switch_cpus.inst           24                       # number of ReadCleanReq misses
system.l2.ReadCleanReq_misses::total               24                       # number of ReadCleanReq misses
system.l2.ReadCleanReq_miss_latency::.switch_cpus.inst      1881500                       # number of ReadCleanReq miss cycles
system.l2.ReadCleanReq_miss_latency::total      1881500                       # number of ReadCleanReq miss cycles
system.l2.ReadCleanReq_accesses::.switch_cpus.inst           30                       # number of ReadCleanReq accesses(hits+misses)
system.l2.ReadCleanReq_accesses::total             30                       # number of ReadCleanReq accesses(hits+misses)
system.l2.ReadCleanReq_miss_rate::.switch_cpus.inst     0.800000                       # miss rate for ReadCleanReq accesses
system.l2.ReadCleanReq_miss_rate::total      0.800000                       # miss rate for ReadCleanReq accesses
system.l2.ReadCleanReq_avg_miss_latency::.switch_cpus.inst 78395.833333                       # average ReadCleanReq miss latency
system.l2.ReadCleanReq_avg_miss_latency::total 78395.833333                       # average ReadCleanReq miss latency
[...]
system.switch_cpus.commit.committedInstType_0::FloatDiv            0      0.00%     55.95% # Class of committed instruction
system.switch_cpus.commit.committedInstType_0::FloatMisc            0      0.00%     55.95% # Class of committed instruction
system.switch_cpus.commit.committedInstType_0::FloatSqrt            0      0.00%     55.95% # Class of committed instruction
system.switch_cpus.commit.committedInstType_0::SimdAdd            0      0.00%     55.95% # Class of committed instruction
system.switch_cpus.commit.committedInstType_0::SimdAddAcc            0      0.00%     55.95% # Class of committed instruction
system.switch_cpus.commit.committedInstType_0::SimdAlu       894998      5.08%     61.03% # Class of committed instruction
system.switch_cpus.commit.committedInstType_0::SimdCmp            0      0.00%     61.03% # Class of committed instruction
system.switch_cpus.commit.committedInstType_0::SimdCvt            0      0.00%     61.03% # Class of committed instruction
system.switch_cpus.commit.committedInstType_0::SimdMisc       894944      5.08%     66.11% # Class of committed instruction
system.switch_cpus.commit.committedInstType_0::SimdMult            0      0.00%     66.11% # Class of committed instruction
system.switch_cpus.commit.committedInstType_0::SimdMultAcc            0      0.00%     66.11% # Class of committed instruction
system.switch_cpus.commit.committedInstType_0::SimdShift            0      0.00%     66.11% # Class of committed instruction
system.switch_cpus.commit.committedInstType_0::SimdShiftAcc            0      0.00%     66.11% # Class of committed instruction
system.switch_cpus.commit.committedInstType_0::SimdDiv            0      0.00%     66.11% # Class of committed instruction
system.switch_cpus.commit.committedInstType_0::SimdSqrt            0      0.00%     66.11% # Class of committed instruction
system.switch_cpus.commit.committedInstType_0::SimdFloatAdd      1491554      8.47%     74.58% # Class of committed instruction
system.switch_cpus.commit.committedInstType_0::SimdFloatAlu            0      0.00%     74.58% # Class of committed instruction
system.switch_cpus.commit.committedInstType_0::SimdFloatCmp            0      0.00%     74.58% # Class of committed instruction
system.switch_cpus.commit.committedInstType_0::SimdFloatCvt       745785      4.23%     78.82% # Class of committed instruction
system.switch_cpus.commit.committedInstType_0::SimdFloatDiv            0      0.00%     78.82% # Class of committed instruction
system.switch_cpus.commit.committedInstType_0::SimdFloatMisc            0      0.00%     78.82% # Class of committed instruction
system.switch_cpus.commit.committedInstType_0::SimdFloatMult      1044072      5.93%     84.74% # Class of committed instruction
system.switch_cpus.commit.committedInstType_0::SimdFloatMultAcc            0      0.00%     84.74% # Class of committed instruction
system.switch_cpus.commit.committedInstType_0::SimdFloatSqrt            0      0.00%     84.74% # Class of committed instruction
system.switch_cpus.commit.committedInstType_0::SimdReduceAdd            0      0.00%     84.74% # Class of committed instruction
system.switch_cpus.commit.committedInstType_0::SimdReduceAlu            0      0.00%     84.74% # Class of committed instruction
system.switch_cpus.commit.committedInstType_0::SimdReduceCmp            0      0.00%     84.74% # Class of committed instruction
system.switch_cpus.commit.committedInstType_0::SimdFloatReduceAdd            0      0.00%     84.74% # Class of committed instruction
system.switch_cpus.commit.committedInstType_0::SimdFloatReduceCmp            0      0.00%     84.74% # Class of committed instruction
system.switch_cpus.commit.committedInstType_0::SimdAes            0      0.00%     84.74% # Class of committed instruction
system.switch_cpus.commit.committedInstType_0::SimdAesMix            0      0.00%     84.74% # Class of committed instruction
system.switch_cpus.commit.committedInstType_0::SimdSha1Hash            0      0.00%     84.74% # Class of committed instruction
system.switch_cpus.commit.committedInstType_0::SimdSha1Hash2            0      0.00%     84.74% # Class of committed instruction
system.switch_cpus.commit.committedInstType_0::SimdSha256Hash            0      0.00%     84.74% # Class of committed instruction
system.switch_cpus.commit.committedInstType_0::SimdSha256Hash2            0      0.00%     84.74% # Class of committed instruction
system.switch_cpus.commit.committedInstType_0::SimdShaSigma2            0      0.00%     84.74% # Class of committed instruction
system.switch_cpus.commit.committedInstType_0::SimdShaSigma3            0      0.00%     84.74% # Class of committed instruction
system.switch_cpus.commit.committedInstType_0::SimdPredAlu            0      0.00%     84.74% # Class of committed instruction
system.switch_cpus.commit.committedInstType_0::MemRead       597611      3.39%     88.14% # Class of committed instruction
system.switch_cpus.commit.committedInstType_0::MemWrite       448689      2.55%     90.68% # Class of committed instruction
system.switch_cpus.commit.committedInstType_0::FloatMemRead      1640704      9.32%    100.00% # Class of committed instruction
system.switch_cpus.commit.committedInstType_0::FloatMemWrite           81      0.00%    100.00% # Class of committed instruction
system.switch_cpus.commit.committedInstType_0::IprAccess            0      0.00%    100.00% # Class of committed instruction
system.switch_cpus.commit.committedInstType_0::InstPrefetch            0      0.00%    100.00% # Class of committed instruction
system.switch_cpus.commit.committedInstType_0::total     17613021                       # Class of committed instruction
system.switch_cpus.commit.commitEligibleSamples       895117                       # number cycles where commit BW limit reached
system.switch_cpus.decode.idleCycles           574346                       # Number of cycles decode is idle
system.switch_cpus.decode.blockedCycles       2233545                       # Number of cycles decode is blocked
system.switch_cpus.decode.runCycles            927007                       # Number of cycles decode is running
system.switch_cpus.decode.unblockCycles       1287936                       # Number of cycles decode is unblocking
system.switch_cpus.decode.squashCycles            762                       # Number of cycles decode is squashing
system.switch_cpus.decode.branchResolved       300634                       # Number of times decode resolved a  branch
system.switch_cpus.decode.branchMispred            27                       # Number of times decode detected a branch misprediction
system.switch_cpus.decode.decodedInsts       17657869                       # Number of instructions handled by decode
system.switch_cpus.decode.squashedInsts           110                       # Number of squashed instructions handled by decode
system.switch_cpus.dtb.rdAccesses             2242237                       # TLB accesses on read requests
system.switch_cpus.dtb.wrAccesses              449627                       # TLB accesses on write requests
system.switch_cpus.dtb.rdMisses                    19                       # TLB misses on read requests
system.switch_cpus.dtb.wrMisses                   341                       # TLB misses on write requests
system.switch_cpus.dtb.walker.power_state.pwrStateResidencyTicks::UNDEFINED   3893724000                       # Cumulative time (in ticks) in various power states
system.switch_cpus.fetch.icacheStallCycles      1200302                       # Number of cycles fetch is stalled on an Icache miss
system.switch_cpus.fetch.insts               10029139                       # Number of instructions fetch has processed
system.switch_cpus.fetch.branches             1048863                       # Number of branches that fetch encountered
system.switch_cpus.fetch.predictedBranches       599897                       # Number of branches that fetch has predicted taken
system.switch_cpus.fetch.cycles               3822279                       # Number of cycles fetch has run and was not squashing or blocked
system.switch_cpus.fetch.squashCycles            1574                       # Number of cycles fetch has spent squashing
system.switch_cpus.fetch.miscStallCycles           26                       # Number of cycles fetch has spent waiting on interrupts,or bad addresses, or out of MSHRs
system.switch_cpus.fetch.pendingTrapStallCycles          208                       # Number of stall cycles due to pending traps
system.switch_cpus.fetch.cacheLines           1199615                       # Number of cache lines fetched
system.switch_cpus.fetch.icacheSquashes           497                       # Number of outstanding Icache misses that were squashed
system.switch_cpus.fetch.nisnDist::samples      5023602                       # Number of instructions fetched each cycle (Total)
system.switch_cpus.fetch.nisnDist::mean      3.516498                       # Number of instructions fetched each cycle (Total)
system.switch_cpus.fetch.nisnDist::stdev     3.573831                       # Number of instructions fetched each cycle (Total)
system.switch_cpus.fetch.nisnDist::underflows            0      0.00%      0.00% # Number of instructions fetched each cycle (Total)
system.switch_cpus.fetch.nisnDist::0          2071697     41.24%     41.24% # Number of instructions fetched each cycle (Total)
system.switch_cpus.fetch.nisnDist::1           259480      5.17%     46.40% # Number of instructions fetched each cycle (Total)
system.switch_cpus.fetch.nisnDist::2           372244      7.41%     53.81% # Number of instructions fetched each cycle (Total)
system.switch_cpus.fetch.nisnDist::3           110849      2.21%     56.02% # Number of instructions fetched each cycle (Total)
system.switch_cpus.fetch.nisnDist::4           113126      2.25%     58.27% # Number of instructions fetched each cycle (Total)
system.switch_cpus.fetch.nisnDist::5           111471      2.22%     60.49% # Number of instructions fetched each cycle (Total)
system.switch_cpus.fetch.nisnDist::6           149498      2.98%     63.47% # Number of instructions fetched each cycle (Total)
system.switch_cpus.fetch.nisnDist::7           259770      5.17%     68.64% # Number of instructions fetched each cycle (Total)
system.switch_cpus.fetch.nisnDist::8          1575467     31.36%    100.00% # Number of instructions fetched each cycle (Total)
system.switch_cpus.fetch.nisnDist::overflows            0      0.00%    100.00% # Number of instructions fetched each cycle (Total)
system.switch_cpus.fetch.nisnDist::min_value            0                       # Number of instructions fetched each cycle (Total)
system.switch_cpus.fetch.nisnDist::max_value            8                       # Number of instructions fetched each cycle (Total)
system.switch_cpus.fetch.nisnDist::total      5023602                       # Number of instructions fetched each cycle (Total)
system.switch_cpus.fetch.branchRate          0.208775                       # Number of branch fetches per cycle
system.switch_cpus.fetch.rate                1.996286                       # Number of inst fetches per cycle
system.switch_cpus.itb.rdAccesses                   0                       # TLB accesses on read requests
system.switch_cpus.itb.wrAccesses             1199651                       # TLB accesses on write requests
system.switch_cpus.itb.rdMisses                     0                       # TLB misses on read requests
system.switch_cpus.itb.wrMisses                    50                       # TLB misses on write requests
system.switch_cpus.itb.walker.power_state.pwrStateResidencyTicks::UNDEFINED   3893724000                       # Cumulative time (in ticks) in various power states
system.switch_cpus.lsq0.forwLoads              149513                       # Number of loads that had data forwarded from stores
system.switch_cpus.lsq0.squashedLoads            4196                       # Number of loads squashed
system.switch_cpus.lsq0.ignoredResponses            0                       # Number of memory responses ignored because the instruction is squashed
system.switch_cpus.lsq0.memOrderViolation            8                       # Number of memory ordering violations
system.switch_cpus.lsq0.squashedStores           1378                       # Number of stores squashed
system.switch_cpus.lsq0.rescheduledLoads           26                       # Number of loads that were rescheduled
system.switch_cpus.lsq0.blockedByCache             79                       # Number of times an access to memory failed due to the cache being blocked
system.switch_cpus.power_state.pwrStateResidencyTicks::OFF   3893724000                       # Cumulative time (in ticks) in various power states
system.switch_cpus.rename.squashCycles            762                       # Number of cycles rename is squashing
system.switch_cpus.rename.idleCycles           943090                       # Number of cycles rename is idle
system.switch_cpus.rename.blockCycles            9189                       # Number of cycles rename is blocking
system.switch_cpus.rename.serializeStallCycles            0                       # count of cycles rename stalledfor serializing inst
system.switch_cpus.rename.runCycles           1846126                       # Number of cycles rename is running
system.switch_cpus.rename.unblockCycles       2224429                       # Number of cycles rename is unblocking
system.switch_cpus.rename.renamedInsts       17655914                       # Number of instructions processed by rename
system.switch_cpus.rename.ROBFullEvents           110                       # Number of times rename has blocked due to ROB full
system.switch_cpus.rename.IQFullEvents        1838396                       # Number of times rename has blocked due to IQ full
system.switch_cpus.rename.SQFullEvents          90620                       # Number of times rename has blocked due to SQ full
system.switch_cpus.rename.renamedOperands     19753850                       # Number of destination operands rename has renamed
system.switch_cpus.rename.lookups            39652085                       # Number of register rename lookups that rename has made
system.switch_cpus.rename.intLookups         16774799                       # Number of integer rename lookups
system.switch_cpus.rename.fpLookups          12995236                       # Number of floating rename lookups
system.switch_cpus.rename.committedMaps      19703464                       # Number of HB maps that are committed
system.switch_cpus.rename.undoneMaps            50238                       # Number of HB maps that are undone due to squashing
system.switch_cpus.rename.serializing               0                       # count of serializing insts renamed
system.switch_cpus.rename.tempSerializing            0                       # count of temporary serializing insts renamed
system.switch_cpus.rename.skidInsts           5188253                       # count of insts added to the skid buffer
system.switch_cpus.rob.reads                 21765377                       # The number of ROB reads
system.switch_cpus.rob.writes                35289781                       # The number of ROB writes
system.switch_cpus.thread_0.numInsts         10000000                       # Number of Instructions committed
system.switch_cpus.thread_0.numOps           17613021                       # Number of Ops committed
system.switch_cpus.thread_0.numMemRefs              0                       # Number of Memory References
system.tol2bus.trans_dist::ReadResp               256                       # Transaction distribution
system.tol2bus.trans_dist::WritebackDirty        13168                       # Transaction distribution
system.tol2bus.trans_dist::WritebackClean           26                       # Transaction distribution
system.tol2bus.trans_dist::CleanEvict            4153                       # Transaction distribution
system.tol2bus.trans_dist::ReadExReq             9419                       # Transaction distribution
system.tol2bus.trans_dist::ReadExResp            9418                       # Transaction distribution
system.tol2bus.trans_dist::ReadCleanReq            30                       # Transaction distribution
system.tol2bus.trans_dist::ReadSharedReq          226                       # Transaction distribution
system.tol2bus.pkt_count_system.cpu.icache.mem_side_port::system.l2.cpu_side_port           86                       # Packet count per connected requestor and responder (bytes)
system.tol2bus.pkt_count_system.cpu.dcache.mem_side_port::system.l2.cpu_side_port        28933                       # Packet count per connected requestor and responder (bytes)
system.tol2bus.pkt_count::total                 29019                       # Packet count per connected requestor and responder (bytes)
system.tol2bus.pkt_size_system.cpu.icache.mem_side_port::system.l2.cpu_side_port         3584                       # Cumulative packet size per connected requestor and responder (bytes)
system.tol2bus.pkt_size_system.cpu.dcache.mem_side_port::system.l2.cpu_side_port      1229248                       # Cumulative packet size per connected requestor and responder (bytes)
system.tol2bus.pkt_size::total                1232832                       # Cumulative packet size per connected requestor and responder (bytes)
system.tol2bus.snoops                            7677                       # Total snoops (count)
system.tol2bus.snoopTraffic                    230720                       # Total snoop traffic (bytes)
system.tol2bus.snoop_fanout::samples            17352                       # Request fanout histogram
system.tol2bus.snoop_fanout::mean            0.056881                       # Request fanout histogram
system.tol2bus.snoop_fanout::stdev           0.231622                       # Request fanout histogram
system.tol2bus.snoop_fanout::underflows             0      0.00%      0.00% # Request fanout histogram
system.tol2bus.snoop_fanout::0                  16365     94.31%     94.31% # Request fanout histogram
system.tol2bus.snoop_fanout::1                    987      5.69%    100.00% # Request fanout histogram
system.tol2bus.snoop_fanout::2                      0      0.00%    100.00% # Request fanout histogram
system.tol2bus.snoop_fanout::3                      0      0.00%    100.00% # Request fanout histogram
system.tol2bus.snoop_fanout::4                      0      0.00%    100.00% # Request fanout histogram
system.tol2bus.snoop_fanout::overflows              0      0.00%    100.00% # Request fanout histogram
system.tol2bus.snoop_fanout::min_value              0                       # Request fanout histogram
system.tol2bus.snoop_fanout::max_value              1                       # Request fanout histogram
system.tol2bus.snoop_fanout::total              17352                       # Request fanout histogram
system.tol2bus.power_state.pwrStateResidencyTicks::UNDEFINED   3893724000                       # Cumulative time (in ticks) in various power states
system.tol2bus.reqLayer0.occupancy           19261500                       # Layer occupancy (ticks)
system.tol2bus.reqLayer0.utilization              0.8                       # Layer utilization (%)
system.tol2bus.respLayer0.occupancy             45499                       # Layer occupancy (ticks)
system.tol2bus.respLayer0.utilization             0.0                       # Layer utilization (%)
system.tol2bus.respLayer1.occupancy          14466000                       # Layer occupancy (ticks)
system.tol2bus.respLayer1.utilization             0.6                       # Layer utilization (%)
system.voltage_domain.voltage                       1                       # Voltage in Volts

---------- End Simulation Statistics   ----------
