
---------- Begin Simulation Statistics ----------
final_tick                                 3893042000                       # Number of ticks from beginning of simulation (restored from checkpoints and never reset)
host_inst_rate                                 228293                       # Simulator instruction rate (inst/s)
host_mem_usage                                8574888                       # Number of bytes of host memory used
host_op_rate                                   416123                       # Simulator op (including micro ops) rate (op/s)
host_seconds                                    48.18                       # Real time elapsed on the host
host_tick_rate                               52118411                       # Simulator tick rate (ticks/s)
sim_freq                                 1000000000000                       # Frequency of simulated ticks
sim_insts                                    11000001                       # Number of instructions simulated
sim_ops                                      20050437                       # Number of ops (including micro ops) simulated
sim_seconds                                  0.002511                       # Number of seconds simulated
sim_ticks                                  2511268000                       # Number of ticks simulated
system.cpu.committedInsts                           0                       # Number of instructions committed
system.cpu.committedOps                             0                       # Number of ops (including micro ops) committed
system.cpu.idle_fraction                            0                       # Percentage of idle cycles
system.cpu.not_idle_fraction                        1                       # Percentage of non-idle cycles
system.cpu.numCycles                                0                       # number of cpu cycles simulated
system.cpu.numWorkItemsCompleted                    0                       # number of work items this cpu completed
system.cpu.numWorkItemsStarted                      0                       # number of work items this cpu started
system.cpu.num_busy_cycles                          0                       # Number of busy cycles
system.cpu.num_conditional_control_insts            0                       # number of instructions that are conditional controls
system.cpu.num_fp_alu_accesses                      0                       # Number of float alu accesses
system.cpu.num_fp_insts                             0                       # number of float instructions
system.cpu.num_fp_register_reads                    0                       # number of times the floating registers were read
system.cpu.num_fp_register_writes                   0                       # number of times the floating registers were written
system.cpu.num_func_calls                           0                       # number of times a function call or return occured
system.cpu.num_idle_cycles                          0                       # Number of idle cycles
system.cpu.num_int_alu_accesses                     0                       # Number of integer alu accesses
system.cpu.num_int_insts                            0                       # number of integer instructions
system.cpu.num_int_register_reads                   0                       # number of times the integer registers were read
system.cpu.num_int_register_writes                  0                       # number of times the integer registers were written
system.cpu.num_load_insts                           0                       # Number of load instructions
system.cpu.num_mem_refs                             0                       # number of memory refs
system.cpu.num_store_insts                          0                       # Number of store instructions
system.cpu.num_vec_alu_accesses                     0                       # Number of vector alu accesses
system.cpu.num_vec_insts                            0                       # number of vector instructions
system.cpu.num_vec_register_reads                   0                       # number of times the vector registers were read
system.cpu.num_vec_register_writes                  0                       # number of times the vector registers were written
system.cpu.op_class::No_OpClass                     0                       # Class of executed instruction
system.cpu.op_class::IntAlu                         0                       # Class of executed instruction
system.cpu.op_class::IntMult                        0                       # Class of executed instruction
system.cpu.op_class::IntDiv                         0                       # Class of executed instruction
system.cpu.op_class::FloatAdd                       0                       # Class of executed instruction
system.cpu.op_class::FloatCmp                       0                       # Class of executed instruction
system.cpu.op_class::FloatCvt                       0                       # Class of executed instruction
system.cpu.op_class::FloatMult                      0                       # Class of executed instruction
system.cpu.op_class::FloatMultAcc                   0                       # Class of executed instruction
system.cpu.op_class::FloatDiv                       0                       # Class of executed instruction
system.cpu.op_class::FloatMisc                      0                       # Class of executed instruction
system.cpu.op_class::FloatSqrt                      0                       # Class of executed instruction
system.cpu.op_class::SimdAdd                        0                       # Class of executed instruction
system.cpu.op_class::SimdAddAcc                     0                       # Class of executed instruction
system.cpu.op_class::SimdAlu                        0                       # Class of executed instruction
system.cpu.op_class::SimdCmp                        0                       # Class of executed instruction
system.cpu.op_class::SimdCvt                        0                       # Class of executed instruction
system.cpu.op_class::SimdMisc                       0                       # Class of executed instruction
system.cpu.op_class::SimdMult                       0                       # Class of executed instruction
system.cpu.op_class::SimdMultAcc                    0                       # Class of executed instruction
system.cpu.op_class::SimdShift                      0                       # Class of executed instruction
system.cpu.op_class::SimdShiftAcc                   0                       # Class of executed instruction
system.cpu.op_class::SimdDiv                        0                       # Class of executed instruction
system.cpu.op_class::SimdSqrt                       0                       # Class of executed instruction
system.cpu.op_class::SimdFloatAdd                   0                       # Class of executed instruction
system.cpu.op_class::SimdFloatAlu                   0                       # Class of executed instruction
system.cpu.op_class::SimdFloatCmp                   0                       # Class of executed instruction
system.cpu.op_class::SimdFloatCvt                   0                       # Class of executed instruction
system.cpu.op_class::SimdFloatDiv                   0                       # Class of executed instruction
system.cpu.op_class::SimdFloatMisc                  0                       # Class of executed instruction
system.cpu.op_class::SimdFloatMult                  0                       # Class of executed instruction
system.cpu.op_class::SimdFloatMultAcc               0                       # Class of executed instruction
system.cpu.op_class::SimdFloatSqrt                  0                       # Class of executed instruction
system.cpu.op_class::SimdReduceAdd                  0                       # Class of executed instruction
system.cpu.op_class::SimdReduceAlu                  0                       # Class of executed instruction
system.cpu.op_class::SimdReduceCmp                  0                       # Class of executed instruction
system.cpu.op_class::SimdFloatReduceAdd             0                       # Class of executed instruction
system.cpu.op_class::SimdFloatReduceCmp             0                       # Class of executed instruction
system.cpu.op_class::SimdAes                        0                       # Class of executed instruction
system.cpu.op_class::SimdAesMix                     0                       # Class of executed instruction
system.cpu.op_class::SimdSha1Hash                   0                       # Class of executed instruction
system.cpu.op_class::SimdSha1Hash2                  0                       # Class of executed instruction
system.cpu.op_class::SimdSha256Hash                 0                       # Class of executed instruction
system.cpu.op_class::SimdSha256Hash2                0                       # Class of executed instruction
system.cpu.op_class::SimdShaSigma2                  0                       # Class of executed instruction
system.cpu.op_class::SimdShaSigma3                  0                       # Class of executed instruction
system.cpu.op_class::SimdPredAlu                    0                       # Class of executed instruction
system.cpu.op_class::MemRead                        0                       # Class of executed instruction
system.cpu.op_class::MemWrite                       0                       # Class of executed instruction
system.cpu.op_class::FloatMemRead                   0                       # Class of executed instruction
system.cpu.op_class::FloatMemWrite                  0                       # Class of executed instruction
system.cpu.op_class::IprAccess                      0                       # Class of executed instruction
system.cpu.op_class::InstPrefetch                   0                       # Class of executed instruction
system.cpu.op_class::total                          0                       # Class of executed instruction
system.cpu.workload.numSyscalls                     3                       # Number of system calls
system.membus.snoop_filter.hit_multi_requests            0                       # Number of requests hitting in the snoop filter with multiple (>1) holders of the requested data.
system.membus.snoop_filter.hit_multi_snoops            0                       # Number of snoops hitting in the snoop filter with multiple (>1) holders of the requested data.
system.membus.snoop_filter.hit_single_requests         6705                       # Number of requests hitting in the snoop filter with a single holder of the requested data.
system.membus.snoop_filter.hit_single_snoops            0                       # Number of snoops hitting in the snoop filter with a single holder of the requested data.
system.membus.snoop_filter.tot_requests         16095                       # Total number of requests made to the snoop filter.
system.membus.snoop_filter.tot_snoops               0                       # Total number of snoops made to the snoop filter.
system.switch_cpus.cc_regfile_reads           3890206                       # number of cc regfile reads
system.switch_cpus.cc_regfile_writes          3889021                       # number of cc regfile writes
system.switch_cpus.committedInsts            10000000                       # Number of Instructions Simulated
system.switch_cpus.committedOps              17613021                       # Number of Ops (including micro ops) Simulated
system.switch_cpus.cpi                       0.502254                       # CPI: Cycles Per Instruction
system.switch_cpus.cpi_total                 0.502254                       # CPI: Total CPI of All Threads
system.switch_cpus.fp_regfile_reads          12986322                       # number of floating regfile reads
system.switch_cpus.fp_regfile_writes          7315552                       # number of floating regfile writes
system.switch_cpus.idleCycles                     298                       # Total number of cycles that the CPU has spent unscheduled due to idling
system.switch_cpus.iew.branchMispredicts          689                       # Number of branch mispredicts detected at execute
system.switch_cpus.iew.exec_branches          1047087                       # Number of branches executed
system.switch_cpus.iew.exec_nop                     0                       # number of nop insts executed
system.switch_cpus.iew.exec_rate             3.512450                       # Inst execution rate
system.switch_cpus.iew.exec_refs              2692134                       # number of memory reference insts executed
system.switch_cpus.iew.exec_stores             449676                       # Number of stores executed
system.switch_cpus.iew.exec_swp                     0                       # number of swp insts executed
system.switch_cpus.iew.iewBlockCycles            4622                       # Number of cycles IEW is blocking
system.switch_cpus.iew.iewDispLoadInsts       2242530                       # Number of dispatched load instructions
system.switch_cpus.iew.iewDispNonSpecInsts            0                       # Number of dispatched non-speculative instructions
system.switch_cpus.iew.iewDispSquashedInsts         1254                       # Number of squashed instructions skipped by dispatch
system.switch_cpus.iew.iewDispStoreInsts       450218                       # Number of dispatched store instructions
system.switch_cpus.iew.iewDispatchedInsts     17650035                       # Number of instructions dispatched to IQ
system.switch_cpus.iew.iewExecLoadInsts       2242458                       # Number of load instructions executed
system.switch_cpus.iew.iewExecSquashedInsts          615                       # Number of squashed instructions skipped in execute
system.switch_cpus.iew.iewExecutedInsts      17641409                       # Number of executed instructions
system.switch_cpus.iew.iewIQFullEvents             28                       # Number of times the IQ has become full, causing a stall
system.switch_cpus.iew.iewIdleCycles                0                       # Number of cycles IEW is idle
system.switch_cpus.iew.iewLSQFullEvents           308                       # Number of times the LSQ has become full, causing a stall
system.switch_cpus.iew.iewSquashCycles            792                       # Number of cycles IEW is squashing
system.switch_cpus.iew.iewUnblockCycles           347                       # Number of cycles IEW is unblocking
system.switch_cpus.iew.memOrderViolationEvents           11                       # Number of memory order violations
system.switch_cpus.iew.predictedNotTakenIncorrect          188                       # Number of branches that were predicted not taken incorrectly
system.switch_cpus.iew.predictedTakenIncorrect          501                       # Number of branches that were predicted taken incorrectly
system.switch_cpus.iew.wb_consumers          23519364                       # num instructions consuming a value
system.switch_cpus.iew.wb_count              17640143                       # cumulative count of insts written-back
system.switch_cpus.iew.wb_fanout             0.586212                       # average fanout of values written-back
system.switch_cpus.iew.wb_producers          13787342                       # num instructions producing a value
system.switch_cpus.iew.wb_rate               3.512198                       # insts written-back per cycle
system.switch_cpus.iew.wb_sent               17640435                       # cumulative count of insts sent to commit
system.switch_cpus.int_regfile_reads         16755038                       # number of integer regfile reads
system.switch_cpus.int_regfile_writes         8529097                       # number of integer regfile writes
system.switch_cpus.ipc                       1.991026                       # IPC: Instructions Per Cycle
system.switch_cpus.ipc_total                 1.991026                       # IPC: Total IPC of All Threads
system.switch_cpus.iq.FU_type_0::No_OpClass       299341      1.70%      1.70% # Type of FU issued
system.switch_cpus.iq.FU_type_0::IntAlu       9126488     51.73%     53.43% # Type of FU issued
system.switch_cpus.iq.FU_type_0::IntMult          317      0.00%     53.43% # Type of FU issued
system.switch_cpus.iq.FU_type_0::IntDiv             0      0.00%     53.43% # Type of FU issued
system.switch_cpus.iq.FU_type_0::FloatAdd       448275      2.54%     55.97% # Type of FU issued
system.switch_cpus.iq.FU_type_0::FloatCmp            0      0.00%     55.97% # Type of FU issued
system.switch_cpus.iq.FU_type_0::FloatCvt            0      0.00%     55.97% # Type of FU issued
system.switch_cpus.iq.FU_type_0::FloatMult            0      0.00%     55.97% # Type of FU issued
system.switch_cpus.iq.FU_type_0::FloatMultAcc            0      0.00%     55.97% # Type of FU issued
system.switch_cpus.iq.FU_type_0::FloatDiv            0      0.00%     55.97% # Type of FU issued
system.switch_cpus.iq.FU_type_0::FloatMisc            0      0.00%     55.97% # Type of FU issued
system.switch_cpus.iq.FU_type_0::FloatSqrt            0      0.00%     55.97% # Type of FU issued
system.switch_cpus.iq.FU_type_0::SimdAdd            0      0.00%     55.97% # Type of FU issued
system.switch_cpus.iq.FU_type_0::SimdAddAcc            0      0.00%     55.97% # Type of FU issued
system.switch_cpus.iq.FU_type_0::SimdAlu       896326      5.08%     61.05% # Type of FU issued
system.switch_cpus.iq.FU_type_0::SimdCmp            0      0.00%     61.05% # Type of FU issued
system.switch_cpus.iq.FU_type_0::SimdCvt            0      0.00%     61.05% # Type of FU issued
system.switch_cpus.iq.FU_type_0::SimdMisc       895788      5.08%     66.13% # Type of FU issued
system.switch_cpus.iq.FU_type_0::SimdMult            0      0.00%     66.13% # Type of FU issued
system.switch_cpus.iq.FU_type_0::SimdMultAcc            0      0.00%     66.13% # Type of FU issued
system.switch_cpus.iq.FU_type_0::SimdShift            0      0.00%     66.13% # Type of FU issued
system.switch_cpus.iq.FU_type_0::SimdShiftAcc            0      0.00%     66.13% # Type of FU issued
system.switch_cpus.iq.FU_type_0::SimdDiv            0      0.00%     66.13% # Type of FU issued
system.switch_cpus.iq.FU_type_0::SimdSqrt            0      0.00%     66.13% # Type of FU issued
system.switch_cpus.iq.FU_type_0::SimdFloatAdd      1492142      8.46%     74.59% # Type of FU issued
system.switch_cpus.iq.FU_type_0::SimdFloatAlu            0      0.00%     74.59% # Type of FU issued
system.switch_cpus.iq.FU_type_0::SimdFloatCmp            0      0.00%     74.59% # Type of FU issued
system.switch_cpus.iq.FU_type_0::SimdFloatCvt       746252      4.23%     78.82% # Type of FU issued
system.switch_cpus.iq.FU_type_0::SimdFloatDiv            0      0.00%     78.82% # Type of FU issued
system.switch_cpus.iq.FU_type_0::SimdFloatMisc            0      0.00%     78.82% # Type of FU issued
system.switch_cpus.iq.FU_type_0::SimdFloatMult      1044864      5.92%     84.74% # Type of FU issued
system.switch_cpus.iq.FU_type_0::SimdFloatMultAcc            0      0.00%     84.74% # Type of FU issued
system.switch_cpus.iq.FU_type_0::SimdFloatSqrt            0      0.00%     84.74% # Type of FU issued
system.switch_cpus.iq.FU_type_0::SimdReduceAdd            0      0.00%     84.74% # Type of FU issued
system.switch_cpus.iq.FU_type_0::SimdReduceAlu            0      0.00%     84.74% # Type of FU issued
system.switch_cpus.iq.FU_type_0::SimdReduceCmp            0      0.00%     84.74% # Type of FU issued
system.switch_cpus.iq.FU_type_0::SimdFloatReduceAdd            0      0.00%     84.74% # Type of FU issued
system.switch_cpus.iq.FU_type_0::SimdFloatReduceCmp            0      0.00%     84.74% # Type of FU issued
system.switch_cpus.iq.FU_type_0::SimdAes            0      0.00%     84.74% # Type of FU issued
system.switch_cpus.iq.FU_type_0::SimdAesMix            0      0.00%     84.74% # Type of FU issued
system.switch_cpus.iq.FU_type_0::SimdSha1Hash            0      0.00%     84.74% # Type of FU issued
system.switch_cpus.iq.FU_type_0::SimdSha1Hash2            0      0.00%     84.74% # Type of FU issued
system.switch_cpus.iq.FU_type_0::SimdSha256Hash            0      0.00%     84.74% # Type of FU issued
system.switch_cpus.iq.FU_type_0::SimdSha256Hash2            0      0.00%     84.74% # Type of FU issued
system.switch_cpus.iq.FU_type_0::SimdShaSigma2            0      0.00%     84.74% # Type of FU issued
system.switch_cpus.iq.FU_type_0::SimdShaSigma3            0      0.00%     84.74% # Type of FU issued
system.switch_cpus.iq.FU_type_0::SimdPredAlu            0      0.00%     84.74% # Type of FU issued
system.switch_cpus.iq.FU_type_0::MemRead       599683      3.40%     88.14% # Type of FU issued
system.switch_cpus.iq.FU_type_0::MemWrite       449564      2.55%     90.69% # Type of FU issued
system.switch_cpus.iq.FU_type_0::FloatMemRead      1642826      9.31%    100.00% # Type of FU issued
system.switch_cpus.iq.FU_type_0::FloatMemWrite          160      0.00%    100.00% # Type of FU issued
system.switch_cpus.iq.FU_type_0::IprAccess            0      0.00%    100.00% # Type of FU issued
system.switch_cpus.iq.FU_type_0::InstPrefetch            0      0.00%    100.00% # Type of FU issued
system.switch_cpus.iq.FU_type_0::total       17642026                       # Type of FU issued
system.switch_cpus.iq.fp_alu_accesses         7763870                       # Number of floating point alu accesses
system.switch_cpus.iq.fp_inst_queue_reads     15527733                       # Number of floating instruction queue reads
system.switch_cpus.iq.fp_inst_queue_wakeup_accesses      7763530                       # Number of floating instruction queue wakeup accesses
system.switch_cpus.iq.fp_inst_queue_writes      7778150                       # Number of floating instruction queue writes
system.switch_cpus.iq.fu_busy_cnt              147700                       # FU busy when requested
system.switch_cpus.iq.fu_busy_rate           0.008372                       # FU busy rate (busy events/executed inst)
system.switch_cpus.iq.fu_full::No_OpClass            0      0.00%      0.00% # attempts to use FU when none available
system.switch_cpus.iq.fu_full::IntAlu          147459     99.84%     99.84% # attempts to use FU when none available
system.switch_cpus.iq.fu_full::IntMult              0      0.00%     99.84% # attempts to use FU when none available
system.switch_cpus.iq.fu_full::IntDiv               0      0.00%     99.84% # attempts to use FU when none available
system.switch_cpus.iq.fu_full::FloatAdd             0      0.00%     99.84% # attempts to use FU when none available
system.switch_cpus.iq.fu_full::FloatCmp             0      0.00%     99.84% # attempts to use FU when none available
system.switch_cpus.iq.fu_full::FloatCvt             0      0.00%     99.84% # attempts to use FU when none available
system.switch_cpus.iq.fu_full::FloatMult            0      0.00%     99.84% # attempts to use FU when none available
system.switch_cpus.iq.fu_full::FloatMultAcc            0      0.00%     99.84% # attempts to use FU when none available
system.switch_cpus.iq.fu_full::FloatDiv             0      0.00%     99.84% # attempts to use FU when none available
system.switch_cpus.iq.fu_full::FloatMisc            0      0.00%     99.84% # attempts to use FU when none available
system.switch_cpus.iq.fu_full::FloatSqrt            0      0.00%     99.84% # attempts to use FU when none available
system.switch_cpus.iq.fu_full::SimdAdd              0      0.00%     99.84% # attempts to use FU when none available
system.switch_cpus.iq.fu_full::SimdAddAcc            0      0.00%     99.84% # attempts to use FU when none available
system.switch_cpus.iq.fu_full::SimdAlu              0      0.00%     99.84% # attempts to use FU when none available
system.switch_cpus.iq.fu_full::SimdCmp              0      0.00%     99.84% # attempts to use FU when none available
system.switch_cpus.iq.fu_full::SimdCvt              0      0.00%     99.84% # attempts to use FU when none available
system.switch_cpus.iq.fu_full::SimdMisc             0      0.00%     99.84% # attempts to use FU when none available
system.switch_cpus.iq.fu_full::SimdMult             0      0.00%     99.84% # attempts to use FU when none available
system.switch_cpus.iq.fu_full::SimdMultAcc            0      0.00%     99.84% # attempts to use FU when none available
system.switch_cpus.iq.fu_full::SimdShift            0      0.00%     99.84% # attempts to use FU when none available
system.switch_cpus.iq.fu_full::SimdShiftAcc            0      0.00%     99.84% # attempts to use FU when none available
system.switch_cpus.iq.fu_full::SimdDiv              0      0.00%     99.84% # attempts to use FU when none available
system.switch_cpus.iq.fu_full::SimdSqrt             0      0.00%     99.84% # attempts to use FU when none available
system.switch_cpus.iq.fu_full::SimdFloatAdd            0      0.00%     99.84% # attempts to use FU when none available
system.switch_cpus.iq.fu_full::SimdFloatAlu            0      0.00%     99.84% # attempts to use FU when none available
system.switch_cpus.iq.fu_full::SimdFloatCmp            0      0.00%     99.84% # attempts to use FU when none available
system.switch_cpus.iq.fu_full::SimdFloatCvt            0      0.00%     99.84% # attempts to use FU when none available
system.switch_cpus.iq.fu_full::SimdFloatDiv            0      0.00%     99.84% # attempts to use FU when none available
system.switch_cpus.iq.fu_full::SimdFloatMisc            0      0.00%     99.84% # attempts to use FU when none available
system.switch_cpus.iq.fu_full::SimdFloatMult            0      0.00%     99.84% # attempts to use FU when none available
system.switch_cpus.iq.fu_full::SimdFloatMultAcc            0      0.00%     99.84% # attempts to use FU when none available
system.switch_cpus.iq.fu_full::SimdFloatSqrt            0      0.00%     99.84% # attempts to use FU when none available
system.switch_cpus.iq.fu_full::SimdReduceAdd            0      0.00%     99.84% # attempts to use FU when none available
system.switch_cpus.iq.fu_full::SimdReduceAlu            0      0.00%     99.84% # attempts to use FU when none available
system.switch_cpus.iq.fu_full::SimdReduceCmp            0      0.00%     99.84% # attempts to use FU when none available
system.switch_cpus.iq.fu_full::SimdFloatReduceAdd            0      0.00%     99.84% # attempts to use FU when none available
system.switch_cpus.iq.fu_full::SimdFloatReduceCmp            0      0.00%     99.84% # attempts to use FU when none available
system.switch_cpus.iq.fu_full::SimdAes              0      0.00%     99.84% # attempts to use FU when none available
system.switch_cpus.iq.fu_full::SimdAesMix            0      0.00%     99.84% # attempts to use FU when none available
system.switch_cpus.iq.fu_full::SimdSha1Hash            0      0.00%     99.84% # attempts to use FU when none available
system.switch_cpus.iq.fu_full::SimdSha1Hash2            0      0.00%     99.84% # attempts to use FU when none available
system.switch_cpus.iq.fu_full::SimdSha256Hash            0      0.00%     99.84% # attempts to use FU when none available
system.switch_cpus.iq.fu_full::SimdSha256Hash2            0      0.00%     99.84% # attempts to use FU when none available
system.switch_cpus.iq.fu_full::SimdShaSigma2            0      0.00%     99.84% # attempts to use FU when none available
system.switch_cpus.iq.fu_full::SimdShaSigma3            0      0.00%     99.84% # attempts to use FU when none available
system.switch_cpus.iq.fu_full::SimdPredAlu            0      0.00%     99.84% # attempts to use FU when none available
system.switch_cpus.iq.fu_full::MemRead            222      0.15%     99.99% # attempts to use FU when none available
system.switch_cpus.iq.fu_full::MemWrite             2      0.00%     99.99% # attempts to use FU when none available
system.switch_cpus.iq.fu_full::FloatMemRead            0      0.00%     99.99% # attempts to use FU when none available
system.switch_cpus.iq.fu_full::FloatMemWrite           17      0.01%    100.00% # attempts to use FU when none available
system.switch_cpus.iq.fu_full::IprAccess            0      0.00%    100.00% # attempts to use FU when none available
system.switch_cpus.iq.fu_full::InstPrefetch            0      0.00%    100.00% # attempts to use FU when none available
system.switch_cpus.iq.int_alu_accesses        9726515                       # Number of integer alu accesses
system.switch_cpus.iq.int_inst_queue_reads     24926283                       # Number of integer instruction queue reads
system.switch_cpus.iq.int_inst_queue_wakeup_accesses      9876613                       # Number of integer instruction queue wakeup accesses
system.switch_cpus.iq.int_inst_queue_writes      9908791                       # Number of integer instruction queue writes
system.switch_cpus.iq.iqInstsAdded           17650035                       # Number of instructions added to the IQ (excludes non-spec)
system.switch_cpus.iq.iqInstsIssued          17642026                       # Number of instructions issued
system.switch_cpus.iq.iqSquashedInstsExamined        36896                       # Number of squashed instructions iterated over during squash; mainly for profiling
system.switch_cpus.iq.iqSquashedInstsIssued           28                       # Number of squashed instructions issued
system.switch_cpus.iq.iqSquashedOperandsExamined        26951                       # Number of squashed operands that are examined and possibly removed from graph
system.switch_cpus.iq.issued_per_cycle::samples      5022238                       # Number of insts issued each cycle
system.switch_cpus.iq.issued_per_cycle::mean     3.512782                       # Number of insts issued each cycle
system.switch_cpus.iq.issued_per_cycle::stdev     1.968516                       # Number of insts issued each cycle
system.switch_cpus.iq.issued_per_cycle::underflows            0      0.00%      0.00% # Number of insts issued each cycle
system.switch_cpus.iq.issued_per_cycle::0       127099      2.53%      2.53% # Number of insts issued each cycle
system.switch_cpus.iq.issued_per_cycle::1       675927     13.46%     15.99% # Number of insts issued each cycle
system.switch_cpus.iq.issued_per_cycle::2      1041527     20.74%     36.73% # Number of insts issued each cycle
system.switch_cpus.iq.issued_per_cycle::3       858563     17.10%     53.82% # Number of insts issued each cycle
system.switch_cpus.iq.issued_per_cycle::4       856462     17.05%     70.88% # Number of insts issued each cycle
system.switch_cpus.iq.issued_per_cycle::5       455058      9.06%     79.94% # Number of insts issued each cycle
system.switch_cpus.iq.issued_per_cycle::6       558765     11.13%     91.06% # Number of insts issued each cycle
system.switch_cpus.iq.issued_per_cycle::7       337068      6.71%     97.77% # Number of insts issued each cycle
system.switch_cpus.iq.issued_per_cycle::8       111769      2.23%    100.00% # Number of insts issued each cycle
system.switch_cpus.iq.issued_per_cycle::overflows            0      0.00%    100.00% # Number of insts issued each cycle
system.switch_cpus.iq.issued_per_cycle::min_value            0                       # Number of insts issued each cycle
system.switch_cpus.iq.issued_per_cycle::max_value            8                       # Number of insts issued each cycle
system.switch_cpus.iq.issued_per_cycle::total      5022238                       # Number of insts issued each cycle
system.switch_cpus.iq.rate                   3.512573                       # Inst issue rate
system.switch_cpus.iq.vec_alu_accesses              0                       # Number of vector alu accesses
system.switch_cpus.iq.vec_inst_queue_reads            0                       # Number of vector instruction queue reads
system.switch_cpus.iq.vec_inst_queue_wakeup_accesses            0                       # Number of vector instruction queue wakeup accesses
system.switch_cpus.iq.vec_inst_queue_writes            0                       # Number of vector instruction queue writes
system.switch_cpus.memDep0.conflictingLoads           16                       # Number of conflicting loads.
system.switch_cpus.memDep0.conflictingStores           46                       # Number of conflicting stores.
system.switch_cpus.memDep0.insertedLoads      2242530                       # Number of loads inserted to the mem dependence unit.
system.switch_cpus.memDep0.insertedStores       450218                       # Number of stores inserted to the mem dependence unit.
system.switch_cpus.misc_regfile_reads         5982423                       # number of misc regfile reads
system.switch_cpus.numCycles                  5022536                       # number of cpu cycles simulated
system.switch_cpus.numWorkItemsCompleted            0                       # number of work items this cpu completed
system.switch_cpus.numWorkItemsStarted              0                       # number of work items this cpu started
system.switch_cpus.timesIdled                       4                       # Number of times that the entire CPU went into an idle state and unscheduled itself
system.tol2bus.snoop_filter.hit_multi_requests            6                       # Number of requests hitting in the snoop filter with multiple (>1) holders of the requested data.
system.tol2bus.snoop_filter.hit_multi_snoops            0                       # Number of snoops hitting in the snoop filter with multiple (>1) holders of the requested data.
system.tol2bus.snoop_filter.hit_single_requests         9677                       # Number of requests hitting in the snoop filter with a single holder of the requested data.
system.tol2bus.snoop_filter.hit_single_snoops          982                       # Number of snoops hitting in the snoop filter with a single holder of the requested data.
system.tol2bus.snoop_filter.tot_requests        19357                       # Total number of requests made to the snoop filter.
system.tol2bus.snoop_filter.tot_snoops            982                       # Total number of snoops made to the snoop filter.
system.clk_domain.clock                          1000                       # Clock period in ticks
system.cpu.branchPred.lookups                       0                       # Number of BP lookups
system.cpu.branchPred.condPredicted                 0                       # Number of conditional branches predicted
system.cpu.branchPred.condIncorrect                 0                       # Number of conditional branches incorrect
system.cpu.branchPred.BTBLookups                    0                       # Number of BTB lookups
system.cpu.branchPred.BTBHits                       0                       # Number of BTB hits
system.cpu.branchPred.BTBHitPct                   nan                       # BTB Hit Percentage
system.cpu.branchPred.RASUsed                       0                       # Number of times the RAS was used to get a target.
system.cpu.branchPred.RASIncorrect                  0                       # Number of incorrect RAS predictions.
system.cpu.branchPred.indirectLookups               0                       # Number of indirect predictor lookups.
system.cpu.branchPred.indirectHits                  0                       # Number of indirect target hits.
system.cpu.branchPred.indirectMisses                0                       # Number of indirect misses.
system.cpu.branchPred.indirectMispredicted            0                       # Number of mispredicted indirect branches.
system.cpu.dcache.demand_hits::.switch_cpus.data      2531664                       # number of demand (read+write) hits
system.cpu.dcache.demand_hits::total          2531664                       # number of demand (read+write) hits
system.cpu.dcache.overall_hits::.switch_cpus.data      2531664                       # number of overall hits
system.cpu.dcache.overall_hits::total         2531664                       # number of overall hits
system.cpu.dcache.demand_misses::.switch_cpus.data         9811                       # number of demand (read+write) misses
system.cpu.dcache.demand_misses::total           9811                       # number of demand (read+write) misses
system.cpu.dcache.overall_misses::.switch_cpus.data         9811                       # number of overall misses
system.cpu.dcache.overall_misses::total          9811                       # number of overall misses
system.cpu.dcache.demand_miss_latency::.switch_cpus.data    754089496                       # number of demand (read+write) miss cycles
system.cpu.dcache.demand_miss_latency::total    754089496                       # number of demand (read+write) miss cycles
system.cpu.dcache.overall_miss_latency::.switch_cpus.data    754089496                       # number of overall miss cycles
system.cpu.dcache.overall_miss_latency::total    754089496                       # number of overall miss cycles
system.cpu.dcache.demand_accesses::.switch_cpus.data      2541475                       # number of demand (read+write) accesses
system.cpu.dcache.demand_accesses::total      2541475                       # number of demand (read+write) accesses
system.cpu.dcache.overall_accesses::.switch_cpus.data      2541475                       # number of overall (read+write) accesses
system.cpu.dcache.overall_accesses::total      2541475                       # number of overall (read+write) accesses
system.cpu.dcache.demand_miss_rate::.switch_cpus.data     0.003860                       # miss rate for demand accesses
system.cpu.dcache.demand_miss_rate::total     0.003860                       # miss rate for demand accesses
system.cpu.dcache.overall_miss_rate::.switch_cpus.data     0.003860                       # miss rate for overall accesses
system.cpu.dcache.overall_miss_rate::total     0.003860                       # miss rate for overall accesses
system.cpu.dcache.demand_avg_miss_latency::.switch_cpus.data 76861.634492                       # average overall miss latency
system.cpu.dcache.demand_avg_miss_latency::total 76861.634492                       # average overall miss latency
system.cpu.dcache.overall_avg_miss_latency::.switch_cpus.data 76861.634492                       # average overall miss latency
system.cpu.dcache.overall_avg_miss_latency::total 76861.634492                       # average overall miss latency
system.cpu.dcache.blocked_cycles::no_mshrs          643                       # number of cycles access was blocked
system.cpu.dcache.blocked_cycles::no_targets            0                       # number of cycles access was blocked
system.cpu.dcache.blocked::no_mshrs                95                       # number of cycles access was blocked
system.cpu.dcache.blocked::no_targets               0                       # number of cycles access was blocked
system.cpu.dcache.avg_blocked_cycles::no_mshrs     6.768421                       # average number of cycles each access was blocked
system.cpu.dcache.avg_blocked_cycles::no_targets          nan                       # average number of cycles each access was blocked
system.cpu.dcache.writebacks::.writebacks         9566                       # number of writebacks
system.cpu.dcache.writebacks::total              9566                       # number of writebacks
system.cpu.dcache.demand_mshr_hits::.switch_cpus.data          163                       # number of demand (read+write) MSHR hits
system.cpu.dcache.demand_mshr_hits::total          163                       # number of demand (read+write) MSHR hits
system.cpu.dcache.overall_mshr_hits::.switch_cpus.data          163                       # number of overall MSHR hits
system.cpu.dcache.overall_mshr_hits::total          163                       # number of overall MSHR hits
system.cpu.dcache.demand_mshr_misses::.switch_cpus.data         9648                       # number of demand (read+write) MSHR misses
system.cpu.dcache.demand_mshr_misses::total         9648                       # number of demand (read+write) MSHR misses
system.cpu.dcache.overall_mshr_misses::.switch_cpus.data         9648                       # number of overall MSHR misses
system.cpu.dcache.overall_mshr_misses::total         9648                       # number of overall MSHR misses
system.cpu.dcache.demand_mshr_miss_latency::.switch_cpus.data    742409996                       # number of demand (read+write) MSHR miss cycles
system.cpu.dcache.demand_mshr_miss_latency::total    742409996                       # number of demand (read+write) MSHR miss cycles
system.cpu.dcache.overall_mshr_miss_latency::.switch_cpus.data    742409996                       # number of overall MSHR miss cycles
system.cpu.dcache.overall_mshr_miss_latency::total    742409996                       # number of overall MSHR miss cycles
system.cpu.dcache.demand_mshr_miss_rate::.switch_cpus.data     0.003796                       # mshr miss rate for demand accesses
system.cpu.dcache.demand_mshr_miss_rate::total     0.003796                       # mshr miss rate for demand accesses
system.cpu.dcache.overall_mshr_miss_rate::.switch_cpus.data     0.003796                       # mshr miss rate for overall accesses
system.cpu.dcache.overall_mshr_miss_rate::total     0.003796                       # mshr miss rate for overall accesses
system.cpu.dcache.demand_avg_mshr_miss_latency::.switch_cpus.data 76949.626451                       # average overall mshr miss latency
system.cpu.dcache.demand_avg_mshr_miss_latency::total 76949.626451                       # average overall mshr miss latency
system.cpu.dcache.overall_avg_mshr_miss_latency::.switch_cpus.data 76949.626451                       # average overall mshr miss latency
system.cpu.dcache.overall_avg_mshr_miss_latency::total 76949.626451                       # average overall mshr miss latency
system.cpu.dcache.replacements                   9647                       # number of replacements
system.cpu.dcache.ReadReq_hits::.switch_cpus.data      2092328                       # number of ReadReq hits
system.cpu.dcache.ReadReq_hits::total         2092328                       # number of ReadReq hits
system.cpu.dcache.ReadReq_misses::.switch_cpus.data          392                       # number of ReadReq misses
system.cpu.dcache.ReadReq_misses::total           392                       # number of ReadReq misses
system.cpu.dcache.ReadReq_miss_latency::.switch_cpus.data      5386500                       # number of ReadReq miss cycles
system.cpu.dcache.ReadReq_miss_latency::total      5386500                       # number of ReadReq miss cycles
system.cpu.dcache.ReadReq_accesses::.switch_cpus.data      2092720                       # number of ReadReq accesses(hits+misses)
system.cpu.dcache.ReadReq_accesses::total      2092720                       # number of ReadReq accesses(hits+misses)
system.cpu.dcache.ReadReq_miss_rate::.switch_cpus.data     0.000187                       # miss rate for ReadReq accesses
system.cpu.dcache.ReadReq_miss_rate::total     0.000187                       # miss rate for ReadReq accesses
system.cpu.dcache.ReadReq_avg_miss_latency::.switch_cpus.data 13741.071429                       # average ReadReq miss latency
system.cpu.dcache.ReadReq_avg_miss_latency::total 13741.071429                       # average ReadReq miss latency
system.cpu.dcache.ReadReq_mshr_hits::.switch_cpus.data          163                       # number of ReadReq MSHR hits
system.cpu.dcache.ReadReq_mshr_hits::total          163                       # number of ReadReq MSHR hits
system.cpu.dcache.ReadReq_mshr_misses::.switch_cpus.data          229                       # number of ReadReq MSHR misses
system.cpu.dcache.ReadReq_mshr_misses::total          229                       # number of ReadReq MSHR misses
system.cpu.dcache.ReadReq_mshr_miss_latency::.switch_cpus.data      3125000                       # number of ReadReq MSHR miss cycles
system.cpu.dcache.ReadReq_mshr_miss_latency::total      3125000                       # number of ReadReq MSHR miss cycles
system.cpu.dcache.ReadReq_mshr_miss_rate::.switch_cpus.data     0.000109                       # mshr miss rate for ReadReq accesses
system.cpu.dcache.ReadReq_mshr_miss_rate::total     0.000109                       # mshr miss rate for ReadReq accesses
system.cpu.dcache.ReadReq_avg_mshr_miss_latency::.switch_cpus.data 13646.288210                       # average ReadReq mshr miss latency
system.cpu.dcache.ReadReq_avg_mshr_miss_latency::total 13646.288210                       # average ReadReq mshr miss latency
system.cpu.dcache.WriteReq_hits::.switch_cpus.data       439336                       # number of WriteReq hits
system.cpu.dcache.WriteReq_hits::total         439336                       # number of WriteReq hits
system.cpu.dcache.WriteReq_misses::.switch_cpus.data         9419                       # number of WriteReq misses
system.cpu.dcache.WriteReq_misses::total         9419                       # number of WriteReq misses
system.cpu.dcache.WriteReq_miss_latency::.switch_cpus.data    748702996                       # number of WriteReq miss cycles
system.cpu.dcache.WriteReq_miss_latency::total    748702996                       # number of WriteReq miss cycles
system.cpu.dcache.WriteReq_accesses::.switch_cpus.data       448755                       # number of WriteReq accesses(hits+misses)
system.cpu.dcache.WriteReq_accesses::total       448755                       # number of WriteReq accesses(hits+misses)
system.cpu.dcache.WriteReq_miss_rate::.switch_cpus.data     0.020989                       # miss rate for WriteReq accesses
system.cpu.dcache.WriteReq_miss_rate::total     0.020989                       # miss rate for WriteReq accesses
system.cpu.dcache.WriteReq_avg_miss_latency::.switch_cpus.data 79488.586474                       # average WriteReq miss latency
system.cpu.dcache.WriteReq_avg_miss_latency::total 79488.586474                       # average WriteReq miss latency
system.cpu.dcache.WriteReq_mshr_misses::.switch_cpus.data         9419                       # number of WriteReq MSHR misses
system.cpu.dcache.WriteReq_mshr_misses::total         9419                       # number of WriteReq MSHR misses
system.cpu.dcache.WriteReq_mshr_miss_latency::.switch_cpus.data    739284996                       # number of WriteReq MSHR miss cycles
system.cpu.dcache.WriteReq_mshr_miss_latency::total    739284996                       # number of WriteReq MSHR miss cycles
system.cpu.dcache.WriteReq_mshr_miss_rate::.switch_cpus.data     0.020989                       # mshr miss rate for WriteReq accesses
system.cpu.dcache.WriteReq_mshr_miss_rate::total     0.020989                       # mshr miss rate for WriteReq accesses
system.cpu.dcache.WriteReq_avg_mshr_miss_latency::.switch_cpus.data 78488.692643                       # average WriteReq mshr miss latency
system.cpu.dcache.WriteReq_avg_mshr_miss_latency::total 78488.692643                       # average WriteReq mshr miss latency
system.cpu.dcache.power_state.pwrStateResidencyTicks::UNDEFINED   3893042000                       # Cumulative time (in ticks) in various power states
system.cpu.dcache.tags.tagsinuse                 1024                       # Cycle average of tags in use
system.cpu.dcache.tags.total_refs             2717544                       # Total number of references to valid blocks.
system.cpu.dcache.tags.sampled_refs             10671                       # Sample count of references to valid blocks.
system.cpu.dcache.tags.avg_refs            254.666292                       # Average number of references to valid blocks.
system.cpu.dcache.tags.warmup_cycle                 0                       # Cycle when the warmup percentage was hit.
system.cpu.dcache.tags.occ_blocks::.cpu.data    65.565850                       # Average occupied blocks per requestor
system.cpu.dcache.tags.occ_blocks::.switch_cpus.data   958.434150                       # Average occupied blocks per requestor
system.cpu.dcache.tags.occ_percent::.cpu.data     0.064029                       # Average percentage of cache occupancy
system.cpu.dcache.tags.occ_percent::.switch_cpus.data     0.935971                       # Average percentage of cache occupancy
system.cpu.dcache.tags.occ_percent::total            1                       # Average percentage of cache occupancy
system.cpu.dcache.tags.occ_task_id_blocks::1024         1024                       # Occupied blocks per task id
system.cpu.dcache.tags.age_task_id_blocks_1024::0           37                       # Occupied blocks per task id
system.cpu.dcache.tags.age_task_id_blocks_1024::1          377                       # Occupied blocks per task id
system.cpu.dcache.tags.age_task_id_blocks_1024::2          600                       # Occupied blocks per task id
system.cpu.dcache.tags.age_task_id_blocks_1024::3           10                       # Occupied blocks per task id
system.cpu.dcache.tags.occ_task_id_percent::1024            1                       # Percentage of cache occupancy per task id
system.cpu.dcache.tags.tag_accesses           5092597                       # Number of tag accesses
system.cpu.dcache.tags.data_accesses          5092597                       # Number of data accesses
system.cpu.dcache.tags.power_state.pwrStateResidencyTicks::UNDEFINED   3893042000                       # Cumulative time (in ticks) in various power states
system.cpu.dtb.rdAccesses                           0                       # TLB accesses on read requests
system.cpu.dtb.wrAccesses                           0                       # TLB accesses on write requests
system.cpu.dtb.rdMisses                             0                       # TLB misses on read requests
system.cpu.dtb.wrMisses                             0                       # TLB misses on write requests
system.cpu.dtb.walker.power_state.pwrStateResidencyTicks::UNDEFINED   3893042000                       # Cumulative time (in ticks) in various power states
system.cpu.dtb_walker_cache.blocked_cycles::no_mshrs            0                       # number of cycles access was blocked
system.cpu.dtb_walker_cache.blocked_cycles::no_targets            0                       # number of cycles access was blocked
system.cpu.dtb_walker_cache.blocked::no_mshrs            0                       # number of cycles access was blocked
system.cpu.dtb_walker_cache.blocked::no_targets            0                       # number of cycles access was blocked
system.cpu.dtb_walker_cache.avg_blocked_cycles::no_mshrs          nan                       # average number of cycles each access was blocked
system.cpu.dtb_walker_cache.avg_blocked_cycles::no_targets          nan                       # average number of cycles each access was blocked
system.cpu.dtb_walker_cache.replacements            0                       # number of replacements
system.cpu.dtb_walker_cache.power_state.pwrStateResidencyTicks::UNDEFINED   3893042000                       # Cumulative time (in ticks) in various power states
system.cpu.dtb_walker_cache.tags.tagsinuse            0                       # Cycle average of tags in use
system.cpu.dtb_walker_cache.tags.total_refs            0                       # Total number of references to valid blocks.
system.cpu.dtb_walker_cache.tags.sampled_refs            0                       # Sample count of references to valid blocks.
system.cpu.dtb_walker_cache.tags.avg_refs          nan                       # Average number of references to valid blocks.
system.cpu.dtb_walker_cache.tags.warmup_cycle            0                       # Cycle when the warmup percentage was hit.
system.cpu.dtb_walker_cache.tags.tag_accesses            0                       # Number of tag accesses
system.cpu.dtb_walker_cache.tags.data_accesses            0                       # Number of data accesses
system.cpu.dtb_walker_cache.tags.power_state.pwrStateResidencyTicks::UNDEFINED   3893042000                       # Cumulative time (in ticks) in various power states
system.cpu.icache.demand_hits::.switch_cpus.inst      1199709                       # number of demand (read+write) hits
system.cpu.icache.demand_hits::total          1199709                       # number of demand (read+write) hits
system.cpu.icache.overall_hits::.switch_cpus.inst      1199709                       # number of overall hits
system.cpu.icache.overall_hits::total         1199709                       # number of overall hits
system.cpu.icache.demand_misses::.switch_cpus.inst           44                       # number of demand (read+write) misses
system.cpu.icache.demand_misses::total             44                       # number of demand (read+write) misses
system.cpu.icache.overall_misses::.switch_cpus.inst           44                       # number of overall misses
system.cpu.icache.overall_misses::total            44                       # number of overall misses
system.cpu.icache.demand_miss_latency::.switch_cpus.inst      3167500                       # number of demand (read+write) miss cycles
system.cpu.icache.demand_miss_latency::total      3167500                       # number of demand (read+write) miss cycles
system.cpu.icache.overall_miss_latency::.switch_cpus.inst      3167500                       # number of overall miss cycles
system.cpu.icache.overall_miss_latency::total      3167500                       # number of overall miss cycles
system.cpu.icache.demand_accesses::.switch_cpus.inst      1199753                       # number of demand (read+write) accesses
system.cpu.icache.demand_accesses::total      1199753                       # number of demand (read+write) accesses
system.cpu.icache.overall_accesses::.switch_cpus.inst      1199753                       # number of overall (read+write) accesses
system.cpu.icache.overall_accesses::total      1199753                       # number of overall (read+write) accesses
system.cpu.icache.demand_miss_rate::.switch_cpus.inst     0.000037                       # miss rate for demand accesses
system.cpu.icache.demand_miss_rate::total     0.000037                       # miss rate for demand accesses
system.cpu.icache.overall_miss_rate::.switch_cpus.inst     0.000037                       # miss rate for overall accesses
system.cpu.icache.overall_miss_rate::total     0.000037                       # miss rate for overall accesses
system.cpu.icache.demand_avg_miss_latency::.switch_cpus.inst 71988.636364                       # average overall miss latency
system.cpu.icache.demand_avg_miss_latency::total 71988.636364                       # average overall miss latency
system.cpu.icache.overall_avg_miss_latency::.switch_cpus.inst 71988.636364                       # average overall miss latency
system.cpu.icache.overall_avg_miss_latency::total 71988.636364                       # average overall miss latency
system.cpu.icache.blocked_cycles::no_mshrs            4                       # number of cycles access was blocked
system.cpu.icache.blocked_cycles::no_targets            0                       # number of cycles access was blocked
system.cpu.icache.blocked::no_mshrs                 1                       # number of cycles access was blocked
system.cpu.icache.blocked::no_targets               0                       # number of cycles access was blocked
system.cpu.icache.avg_blocked_cycles::no_mshrs            4                       # average number of cycles each access was blocked
system.cpu.icache.avg_blocked_cycles::no_targets          nan                       # average number of cycles each access was blocked
system.cpu.icache.writebacks::.writebacks           29                       # number of writebacks
system.cpu.icache.writebacks::total                29                       # number of writebacks
system.cpu.icache.demand_mshr_hits::.switch_cpus.inst           11                       # number of demand (read+write) MSHR hits
system.cpu.icache.demand_mshr_hits::total           11                       # number of demand (read+write) MSHR hits
system.cpu.icache.overall_mshr_hits::.switch_cpus.inst           11                       # number of overall MSHR hits
system.cpu.icache.overall_mshr_hits::total           11                       # number of overall MSHR hits
system.cpu.icache.demand_mshr_misses::.switch_cpus.inst           33                       # number of demand (read+write) MSHR misses
system.cpu.icache.demand_mshr_misses::total           33                       # number of demand (read+write) MSHR misses
system.cpu.icache.overall_mshr_misses::.switch_cpus.inst           33                       # number of overall MSHR misses
system.cpu.icache.overall_mshr_misses::total           33                       # number of overall MSHR misses
system.cpu.icache.demand_mshr_miss_latency::.switch_cpus.inst      2498500                       # number of demand (read+write) MSHR miss cycles
system.cpu.icache.demand_mshr_miss_latency::total      2498500                       # number of demand (read+write) MSHR miss cycles
system.cpu.icache.overall_mshr_miss_latency::.switch_cpus.inst      2498500                       # number of overall MSHR miss cycles
system.cpu.icache.overall_mshr_miss_latency::total      2498500                       # number of overall MSHR miss cycles
system.cpu.icache.demand_mshr_miss_rate::.switch_cpus.inst     0.000028                       # mshr miss rate for demand accesses
system.cpu.icache.demand_mshr_miss_rate::total     0.000028                       # mshr miss rate for demand accesses
system.cpu.icache.overall_mshr_miss_rate::.switch_cpus.inst     0.000028                       # mshr miss rate for overall accesses
system.cpu.icache.overall_mshr_miss_rate::total     0.000028                       # mshr miss rate for overall accesses
system.cpu.icache.demand_avg_mshr_miss_latency::.switch_cpus.inst 75712.121212                       # average overall mshr miss latency
system.cpu.icache.demand_avg_mshr_miss_latency::total 75712.121212                       # average overall mshr miss latency
system.cpu.icache.overall_avg_mshr_miss_latency::.switch_cpus.inst 75712.121212                       # average overall mshr miss latency
system.cpu.icache.overall_avg_mshr_miss_latency::total 75712.121212                       # average overall mshr miss latency
system.cpu.icache.replacements                     29                       # number of replacements
system.cpu.icache.ReadReq_hits::.switch_cpus.inst      1199709                       # number of ReadReq hits
system.cpu.icache.ReadReq_hits::total         1199709                       # number of ReadReq hits
system.cpu.icache.ReadReq_misses::.switch_cpus.inst           44                       # number of ReadReq misses
system.cpu.icache.ReadReq_misses::total            44                       # number of ReadReq misses
system.cpu.icache.ReadReq_miss_latency::.switch_cpus.inst      3167500                       # number of ReadReq miss cycles
system.cpu.icache.ReadReq_miss_latency::total      3167500                       # number of ReadReq miss cycles
system.cpu.icache.ReadReq_accesses::.switch_cpus.inst      1199753                       # number of ReadReq accesses(hits+misses)
system.cpu.icache.ReadReq_accesses::total      1199753                       # number of ReadReq accesses(hits+misses)
system.cpu.icache.ReadReq_miss_rate::.switch_cpus.inst     0.000037                       # miss rate for ReadReq accesses
system.cpu.icache.ReadReq_miss_rate::total     0.000037                       # miss rate for ReadReq accesses
system.cpu.icache.ReadReq_avg_miss_latency::.switch_cpus.inst 71988.636364                       # average ReadReq miss latency
system.cpu.icache.ReadReq_avg_miss_latency::total 71988.636364                       # average ReadReq miss latency
system.cpu.icache.ReadReq_mshr_hits::.switch_cpus.inst           11                       # number of ReadReq MSHR hits
system.cpu.icache.ReadReq_mshr_hits::total           11                       # number of ReadReq MSHR hits
system.cpu.icache.ReadReq_mshr_misses::.switch_cpus.inst           33                       # number of ReadReq MSHR misses
system.cpu.icache.ReadReq_mshr_misses::total           33                       # number of ReadReq MSHR misses
system.cpu.icache.ReadReq_mshr_miss_latency::.switch_cpus.inst      2498500                       # number of ReadReq MSHR miss cycles
system.cpu.icache.ReadReq_mshr_miss_latency::total      2498500                       # number of ReadReq MSHR miss cycles
system.cpu.icache.ReadReq_mshr_miss_rate::.switch_cpus.inst     0.000028                       # mshr miss rate for ReadReq accesses
system.cpu.icache.ReadReq_mshr_miss_rate::total     0.000028                       # mshr miss rate for ReadReq accesses
system.cpu.icache.ReadReq_avg_mshr_miss_latency::.switch_cpus.inst 75712.121212                       # average ReadReq mshr miss latency
system.cpu.icache.ReadReq_avg_mshr_miss_latency::total 75712.121212                       # average ReadReq mshr miss latency
system.cpu.icache.power_state.pwrStateResidencyTicks::UNDEFINED   3893042000                       # Cumulative time (in ticks) in various power states
system.cpu.icache.tags.tagsinuse           974.000284                       # Cycle average of tags in use
system.cpu.icache.tags.total_refs             2335886                       # Total number of references to valid blocks.
system.cpu.icache.tags.sampled_refs              1005                       # Sample count of references to valid blocks.
system.cpu.icache.tags.avg_refs           2324.264677                       # Average number of references to valid blocks.
system.cpu.icache.tags.warmup_cycle                 0                       # Cycle when the warmup percentage was hit.
system.cpu.icache.tags.occ_blocks::.cpu.inst   950.473432                       # Average occupied blocks per requestor
system.cpu.icache.tags.occ_blocks::.switch_cpus.inst    23.526852                       # Average occupied blocks per requestor
system.cpu.icache.tags.occ_percent::.cpu.inst     0.928197                       # Average percentage of cache occupancy
system.cpu.icache.tags.occ_percent::.switch_cpus.inst     0.022975                       # Average percentage of cache occupancy
system.cpu.icache.tags.occ_percent::total     0.951172                       # Average percentage of cache occupancy
system.cpu.icache.tags.occ_task_id_blocks::1024          976                       # Occupied blocks per task id
system.cpu.icache.tags.age_task_id_blocks_1024::1            3                       # Occupied blocks per task id
system.cpu.icache.tags.age_task_id_blocks_1024::2            4                       # Occupied blocks per task id
system.cpu.icache.tags.age_task_id_blocks_1024::3          969                       # Occupied blocks per task id
system.cpu.icache.tags.occ_task_id_percent::1024     0.953125                       # Percentage of cache occupancy per task id
system.cpu.icache.tags.tag_accesses           2399539                       # Number of tag accesses
system.cpu.icache.tags.data_accesses          2399539                       # Number of data accesses
system.cpu.icache.tags.power_state.pwrStateResidencyTicks::UNDEFINED   3893042000                       # Cumulative time (in ticks) in various power states
system.cpu.interrupts.clk_domain.clock           8000                       # Clock period in ticks
system.cpu.itb.rdAccesses                           0                       # TLB accesses on read requests
system.cpu.itb.wrAccesses                           0                       # TLB accesses on write requests
system.cpu.itb.rdMisses                             0                       # TLB misses on read requests
system.cpu.itb.wrMisses                             0                       # TLB misses on write requests
system.cpu.itb.walker.power_state.pwrStateResidencyTicks::UNDEFINED   3893042000                       # Cumulative time (in ticks) in various power states
system.cpu.itb_walker_cache.blocked_cycles::no_mshrs            0                       # number of cycles access was blocked
system.cpu.itb_walker_cache.blocked_cycles::no_targets            0                       # number of cycles access was blocked
system.cpu.itb_walker_cache.blocked::no_mshrs            0                       # number of cycles access was blocked
system.cpu.itb_walker_cache.blocked::no_targets            0                       # number of cycles access was blocked
system.cpu.itb_walker_cache.avg_blocked_cycles::no_mshrs          nan                       # average number of cycles each access was blocked
system.cpu.itb_walker_cache.avg_blocked_cycles::no_targets          nan                       # average number of cycles each access was blocked
system.cpu.itb_walker_cache.replacements            0                       # number of replacements
system.cpu.itb_walker_cache.power_state.pwrStateResidencyTicks::UNDEFINED   3893042000                       # Cumulative time (in ticks) in various power states
system.cpu.itb_walker_cache.tags.tagsinuse            0                       # Cycle average of tags in use
system.cpu.itb_walker_cache.tags.total_refs            0                       # Total number of references to valid blocks.
system.cpu.itb_walker_cache.tags.sampled_refs            0                       # Sample count of references to valid blocks.
system.cpu.itb_walker_cache.tags.avg_refs          nan                       # Average number of references to valid blocks.
system.cpu.itb_walker_cache.tags.warmup_cycle            0                       # Cycle when the warmup percentage was hit.
system.cpu.itb_walker_cache.tags.tag_accesses            0                       # Number of tag accesses
system.cpu.itb_walker_cache.tags.data_accesses            0                       # Number of data accesses
system.cpu.itb_walker_cache.tags.power_state.pwrStateResidencyTicks::UNDEFINED   3893042000                       # Cumulative time (in ticks) in various power states
system.cpu.power_state.pwrStateResidencyTicks::OFF   2511268000                       # Cumulative time (in ticks) in various power states
system.cpu.thread_0.numInsts                        0                       # Number of Instructions committed
system.cpu.thread_0.numOps                          0                       # Number of Ops committed
system.cpu.thread_0.numMemRefs                      0                       # Number of Memory References
system.cpu_clk_domain.clock                       500                       # Clock period in ticks
system.cpu_voltage_domain.voltage                   1                       # Voltage in Volts
system.l2.demand_hits::.switch_cpus.inst            5                       # number of demand (read+write) hits
system.l2.demand_hits::.switch_cpus.data          286                       # number of demand (read+write) hits
system.l2.demand_hits::total                      291                       # number of demand (read+write) hits
system.l2.overall_hits::.switch_cpus.inst            5                       # number of overall hits
system.l2.overall_hits::.switch_cpus.data          286                       # number of overall hits
system.l2.overall_hits::total                     291                       # number of overall hits
system.l2.demand_misses::.switch_cpus.inst           28                       # number of demand (read+write) misses
system.l2.demand_misses::.switch_cpus.data         9362                       # number of demand (read+write) misses
system.l2.demand_misses::total                   9390                       # number of demand (read+write) misses
system.l2.overall_misses::.switch_cpus.inst           28                       # number of overall misses
system.l2.overall_misses::.switch_cpus.data         9362                       # number of overall misses
system.l2.overall_misses::total                  9390                       # number of overall misses
system.l2.demand_miss_latency::.switch_cpus.inst      2390500                       # number of demand (read+write) miss cycles
system.l2.demand_miss_latency::.switch_cpus.data    724799500                       # number of demand (read+write) miss cycles
system.l2.demand_miss_latency::total        727190000                       # number of demand (read+write) miss cycles
system.l2.overall_miss_latency::.switch_cpus.inst      2390500                       # number of overall miss cycles
system.l2.overall_miss_latency::.switch_cpus.data    724799500                       # number of overall miss cycles
system.l2.overall_miss_latency::total       727190000                       # number of overall miss cycles
system.l2.demand_accesses::.switch_cpus.inst           33                       # number of demand (read+write) accesses
system.l2.demand_accesses::.switch_cpus.data         9648                       # number of demand (read+write) accesses
system.l2.demand_accesses::total                 9681                       # number of demand (read+write) accesses
system.l2.overall_accesses::.switch_cpus.inst           33                       # number of overall (read+write) accesses
system.l2.overall_accesses::.switch_cpus.data         9648                       # number of overall (read+write) accesses
system.l2.overall_accesses::total                9681                       # number of overall (read+write) accesses
system.l2.demand_miss_rate::.switch_cpus.inst     0.848485                       # miss rate for demand accesses
system.l2.demand_miss_rate::.switch_cpus.data     0.970357                       # miss rate for demand accesses
system.l2.demand_miss_rate::total            0.969941                       # miss rate for demand accesses
system.l2.overall_miss_rate::.switch_cpus.inst     0.848485                       # miss rate for overall accesses
system.l2.overall_miss_rate::.switch_cpus.data     0.970357                       # miss rate for overall accesses
system.l2.overall_miss_rate::total           0.969941                       # miss rate for overall accesses
system.l2.demand_avg_miss_latency::.switch_cpus.inst        85375                       # average overall miss latency
system.l2.demand_avg_miss_latency::.switch_cpus.data 77419.301431                       # average overall miss latency
system.l2.demand_avg_miss_latency::total 77443.024494                       # average overall miss latency
system.l2.overall_avg_miss_latency::.switch_cpus.inst        85375                       # average overall miss latency
system.l2.overall_avg_miss_latency::.switch_cpus.data 77419.301431                       # average overall miss latency
system.l2.overall_avg_miss_latency::total 77443.024494                       # average overall miss latency
system.l2.blocked_cycles::no_mshrs                  0                       # number of cycles access was blocked
system.l2.blocked_cycles::no_targets                0                       # number of cycles access was blocked
system.l2.blocked::no_mshrs                         0                       # number of cycles access was blocked
system.l2.blocked::no_targets                       0                       # number of cycles access was blocked
system.l2.avg_blocked_cycles::no_mshrs            nan                       # average number of cycles each access was blocked
system.l2.avg_blocked_cycles::no_targets          nan                       # average number of cycles each access was blocked
system.l2.writebacks::.writebacks                3611                       # number of writebacks
system.l2.writebacks::total                      3611                       # number of writebacks
system.l2.demand_mshr_misses::.switch_cpus.inst           28                       # number of demand (read+write) MSHR misses
system.l2.demand_mshr_misses::.switch_cpus.data         9362                       # number of demand (read+write) MSHR misses
system.l2.demand_mshr_misses::total              9390                       # number of demand (read+write) MSHR misses
system.l2.overall_mshr_misses::.switch_cpus.inst           28                       # number of overall MSHR misses
system.l2.overall_mshr_misses::.switch_cpus.data         9362                       # number of overall MSHR misses
system.l2.overall_mshr_misses::total             9390                       # number of overall MSHR misses
system.l2.demand_mshr_miss_latency::.switch_cpus.inst      2110500                       # number of demand (read+write) MSHR miss cycles
system.l2.demand_mshr_miss_latency::.switch_cpus.data    631189500                       # number of demand (read+write) MSHR miss cycles
system.l2.demand_mshr_miss_latency::total    633300000                       # number of demand (read+write) MSHR miss cycles
system.l2.overall_mshr_miss_latency::.switch_cpus.inst      2110500                       # number of overall MSHR miss cycles
system.l2.overall_mshr_miss_latency::.switch_cpus.data    631189500                       # number of overall MSHR miss cycles
system.l2.overall_mshr_miss_latency::total    633300000                       # number of overall MSHR miss cycles
system.l2.demand_mshr_miss_rate::.switch_cpus.inst     0.848485                       # mshr miss rate for demand accesses
system.l2.demand_mshr_miss_rate::.switch_cpus.data     0.970357                       # mshr miss rate for demand accesses
system.l2.demand_mshr_miss_rate::total       0.969941                       # mshr miss rate for demand accesses
system.l2.overall_mshr_miss_rate::.switch_cpus.inst     0.848485                       # mshr miss rate for overall accesses
system.l2.overall_mshr_miss_rate::.switch_cpus.data     0.970357                       # mshr miss rate for overall accesses
system.l2.overall_mshr_miss_rate::total      0.969941                       # mshr miss rate for overall accesses
system.l2.demand_avg_mshr_miss_latency::.switch_cpus.inst        75375                       # average overall mshr miss latency
system.l2.demand_avg_mshr_miss_latency::.switch_cpus.data 67420.369579                       # average overall mshr miss latency
system.l2.demand_avg_mshr_miss_latency::total 67444.089457                       # average overall mshr miss latency
system.l2.overall_avg_mshr_miss_latency::.switch_cpus.inst        75375                       # average overall mshr miss latency
system.l2.overall_avg_mshr_miss_latency::.switch_cpus.data 67420.369579                       # average overall mshr miss latency
system.l2.overall_avg_mshr_miss_latency::total 67444.089457                       # average overall mshr miss latency
system.l2.replacements                           7687                       # number of replacements
system.l2.WritebackDirty_hits::.writebacks         9566                       # number of WritebackDirty hits
system.l2.WritebackDirty_hits::total             9566                       # number of WritebackDirty hits
system.l2.WritebackDirty_accesses::.writebacks         9566                       # number of WritebackDirty accesses(hits+misses)
system.l2.WritebackDirty_accesses::total         9566                       # number of WritebackDirty accesses(hits+misses)
system.l2.WritebackClean_hits::.writebacks           29                       # number of WritebackClean hits
system.l2.WritebackClean_hits::total               29                       # number of WritebackClean hits
system.l2.WritebackClean_accesses::.writebacks           29                       # number of WritebackClean accesses(hits+misses)
system.l2.WritebackClean_accesses::total           29                       # number of WritebackClean accesses(hits+misses)
system.l2.ReadExReq_hits::.switch_cpus.data           61                       # number of ReadExReq hits
system.l2.ReadExReq_hits::total                    61                       # number of ReadExReq hits
system.l2.ReadExReq_misses::.switch_cpus.data         9358                       # number of ReadExReq misses
system.l2.ReadExReq_misses::total                9358                       # number of ReadExReq misses
system.l2.ReadExReq_miss_latency::.switch_cpus.data    724471500                       # number of ReadExReq miss cycles
system.l2.ReadExReq_miss_latency::total     724471500                       # number of ReadExReq miss cycles
system.l2.ReadExReq_accesses::.switch_cpus.data         9419                       # number of ReadExReq accesses(hits+misses)
system.l2.ReadExReq_accesses::total              9419                       # number of ReadExReq accesses(hits+misses)
system.l2.ReadExReq_miss_rate::.switch_cpus.data     0.993524                       # miss rate for ReadExReq accesses
system.l2.ReadExReq_miss_rate::total         0.993524                       # miss rate for ReadExReq accesses
system.l2.ReadExReq_avg_miss_latency::.switch_cpus.data 77417.343449                       # average ReadExReq miss latency
system.l2.ReadExReq_avg_miss_latency::total 77417.343449                       # average ReadExReq miss latency
system.l2.ReadExReq_mshr_misses::.switch_cpus.data         9358                       # number of ReadExReq MSHR misses
system.l2.ReadExReq_mshr_misses::total           9358                       # number of ReadExReq MSHR misses
system.l2.ReadExReq_mshr_miss_latency::.switch_cpus.data    630901500                       # number of ReadExReq MSHR miss cycles
system.l2.ReadExReq_mshr_miss_latency::total    630901500                       # number of ReadExReq MSHR miss cycles
system.l2.ReadExReq_mshr_miss_rate::.switch_cpus.data     0.993524                       # mshr miss rate for ReadExReq accesses
system.l2.ReadExReq_mshr_miss_rate::total     0.993524                       # mshr miss rate for ReadExReq accesses
system.l2.ReadExReq_avg_mshr_miss_latency::.switch_cpus.data 67418.412054                       # average ReadExReq mshr miss latency
system.l2.ReadExReq_avg_mshr_miss_latency::total 67418.412054                       # average ReadExReq mshr miss latency
system.l2.ReadCleanReq_hits::.switch_cpus.inst            5                       # number of ReadCleanReq hits
system.l2.ReadCleanReq_hits::total                  5                       # number of ReadCleanReq hits
system.l2.ReadCleanReq_misses::.switch_cpus.inst           28                       # number of ReadCleanReq misses
system.l2.ReadCleanReq_misses::total               28                       # number of ReadCleanReq misses
system.l2.ReadCleanReq_miss_latency::.switch_cpus.inst      2390500                       # number of ReadCleanReq miss cycles
system.l2.ReadCleanReq_miss_latency::total      2390500                       # number of ReadCleanReq miss cycles
system.l2.ReadCleanReq_accesses::.switch_cpus.inst           33                       # number of ReadCleanReq accesses(hits+misses)
system.l2.ReadCleanReq_accesses::total             33                       # number of ReadCleanReq accesses(hits+misses)
system.l2.ReadCleanReq_miss_rate::.switch_cpus.inst     0.848485                       # miss rate for ReadCleanReq accesses
system.l2.ReadCleanReq_miss_rate::total      0.848485                       # miss rate for ReadCleanReq accesses
system.l2.ReadCleanReq_avg_miss_latency::.switch_cpus.inst        85375                       # average ReadCleanReq miss latency
system.l2.ReadCleanReq_avg_miss_latency::total        85375                       # average ReadCleanReq miss latency
[...]
system.switch_cpus.commit.committedInstType_0::FloatDiv            0      0.00%     55.95% # Class of committed instruction
system.switch_cpus.commit.committedInstType_0::FloatMisc            0      0.00%     55.95% # Class of committed instruction
system.switch_cpus.commit.committedInstType_0::FloatSqrt            0      0.00%     55.95% # Class of committed instruction
system.switch_cpus.commit.committedInstType_0::SimdAdd            0      0.00%     55.95% # Class of committed instruction
system.switch_cpus.commit.committedInstType_0::SimdAddAcc            0      0.00%     55.95% # Class of committed instruction
system.switch_cpus.commit.committedInstType_0::SimdAlu       894998      5.08%     61.03% # Class of committed instruction
system.switch_cpus.commit.committedInstType_0::SimdCmp            0      0.00%     61.03% # Class of committed instruction
system.switch_cpus.commit.committedInstType_0::SimdCvt            0      0.00%     61.03% # Class of committed instruction
system.switch_cpus.commit.committedInstType_0::SimdMisc       894944      5.08%     66.11% # Class of committed instruction
system.switch_cpus.commit.committedInstType_0::SimdMult            0      0.00%     66.11% # Class of committed instruction
system.switch_cpus.commit.committedInstType_0::SimdMultAcc            0      0.00%     66.11% # Class of committed instruction
system.switch_cpus.commit.committedInstType_0::SimdShift            0      0.00%     66.11% # Class of committed instruction
system.switch_cpus.commit.committedInstType_0::SimdShiftAcc            0      0.00%     66.11% # Class of committed instruction
system.switch_cpus.commit.committedInstType_0::SimdDiv            0      0.00%     66.11% # Class of committed instruction
system.switch_cpus.commit.committedInstType_0::SimdSqrt            0      0.00%     66.11% # Class of committed instruction
system.switch_cpus.commit.committedInstType_0::SimdFloatAdd      1491554      8.47%     74.58% # Class of committed instruction
system.switch_cpus.commit.committedInstType_0::SimdFloatAlu            0      0.00%     74.58% # Class of committed instruction
system.switch_cpus.commit.committedInstType_0::SimdFloatCmp            0      0.00%     74.58% # Class of committed instruction
system.switch_cpus.commit.committedInstType_0::SimdFloatCvt       745785      4.23%     78.82% # Class of committed instruction
system.switch_cpus.commit.committedInstType_0::SimdFloatDiv            0      0.00%     78.82% # Class of committed instruction
system.switch_cpus.commit.committedInstType_0::SimdFloatMisc            0      0.00%     78.82% # Class of committed instruction
system.switch_cpus.commit.committedInstType_0::SimdFloatMult      1044072      5.93%     84.74% # Class of committed instruction
system.switch_cpus.commit.committedInstType_0::SimdFloatMultAcc            0      0.00%     84.74% # Class of committed instruction
system.switch_cpus.commit.committedInstType_0::SimdFloatSqrt            0      0.00%     84.74% # Class of committed instruction
system.switch_cpus.commit.committedInstType_0::SimdReduceAdd            0      0.00%     84.74% # Class of committed instruction
system.switch_cpus.commit.committedInstType_0::SimdReduceAlu            0      0.00%     84.74% # Class of committed instruction
system.switch_cpus.commit.committedInstType_0::SimdReduceCmp            0      0.00%     84.74% # Class of committed instruction
system.switch_cpus.commit.committedInstType_0::SimdFloatReduceAdd            0      0.00%     84.74% # Class of committed instruction
system.switch_cpus.commit.committedInstType_0::SimdFloatReduceCmp            0      0.00%     84.74% # Class of committed instruction
system.switch_cpus.commit.committedInstType_0::SimdAes            0      0.00%     84.74% # Class of committed instruction
system.switch_cpus.commit.committedInstType_0::SimdAesMix            0      0.00%     84.74% # Class of committed instruction
system.switch_cpus.commit.committedInstType_0::SimdSha1Hash            0      0.00%     84.74% # Class of committed instruction
system.switch_cpus.commit.committedInstType_0::SimdSha1Hash2            0      0.00%     84.74% # Class of committed instruction
system.switch_cpus.commit.committedInstType_0::SimdSha256Hash            0      0.00%     84.74% # Class of committed instruction
system.switch_cpus.commit.committedInstType_0::SimdSha256Hash2            0      0.00%     84.74% # Class of committed instruction
system.switch_cpus.commit.committedInstType_0::SimdShaSigma2            0      0.00%     84.74% # Class of committed instruction
system.switch_cpus.commit.committedInstType_0::SimdShaSigma3            0      0.00%     84.74% # Class of committed instruction
system.switch_cpus.commit.committedInstType_0::SimdPredAlu            0      0.00%     84.74% # Class of committed instruction
system.switch_cpus.commit.committedInstType_0::MemRead       597611      3.39%     88.14% # Class of committed instruction
system.switch_cpus.commit.committedInstType_0::MemWrite       448689      2.55%     90.68% # Class of committed instruction
system.switch_cpus.commit.committedInstType_0::FloatMemRead      1640704      9.32%    100.00% # Class of committed instruction
system.switch_cpus.commit.committedInstType_0::FloatMemWrite           81      0.00%    100.00% # Class of committed instruction
system.switch_cpus.commit.committedInstType_0::IprAccess            0      0.00%    100.00% # Class of committed instruction
system.switch_cpus.commit.committedInstType_0::InstPrefetch            0      0.00%    100.00% # Class of committed instruction
system.switch_cpus.commit.committedInstType_0::total     17613021                       # Class of committed instruction
system.switch_cpus.commit.commitEligibleSamples       895105                       # number cycles where commit BW limit reached
system.switch_cpus.decode.idleCycles           574986                       # Number of cycles decode is idle
system.switch_cpus.decode.blockedCycles       2231095                       # Number of cycles decode is blocked
system.switch_cpus.decode.runCycles            928168                       # Number of cycles decode is running
system.switch_cpus.decode.unblockCycles       1287191                       # Number of cycles decode is unblocking
system.switch_cpus.decode.squashCycles            792                       # Number of cycles decode is squashing
system.switch_cpus.decode.branchResolved       300689                       # Number of times decode resolved a  branch
system.switch_cpus.decode.branchMispred            32                       # Number of times decode detected a branch misprediction
system.switch_cpus.decode.decodedInsts       17659119                       # Number of instructions handled by decode
system.switch_cpus.decode.squashedInsts           123                       # Number of squashed instructions handled by decode
system.switch_cpus.dtb.rdAccesses             2242261                       # TLB accesses on read requests
system.switch_cpus.dtb.wrAccesses              449686                       # TLB accesses on write requests
system.switch_cpus.dtb.rdMisses                    19                       # TLB misses on read requests
system.switch_cpus.dtb.wrMisses                   339                       # TLB misses on write requests
system.switch_cpus.dtb.walker.power_state.pwrStateResidencyTicks::UNDEFINED   3893042000                       # Cumulative time (in ticks) in various power states
system.switch_cpus.fetch.icacheStallCycles      1200475                       # Number of cycles fetch is stalled on an Icache miss
system.switch_cpus.fetch.insts               10029947                       # Number of instructions fetch has processed
system.switch_cpus.fetch.branches             1048920                       # Number of branches that fetch encountered
system.switch_cpus.fetch.predictedBranches       599937                       # Number of branches that fetch has predicted taken
system.switch_cpus.fetch.cycles               3820729                       # Number of cycles fetch has run and was not squashing or blocked
system.switch_cpus.fetch.squashCycles            1642                       # Number of cycles fetch has spent squashing
system.switch_cpus.fetch.miscStallCycles           26                       # Number of cycles fetch has spent waiting on interrupts,or bad addresses, or out of MSHRs
system.switch_cpus.fetch.pendingTrapStallCycles          187                       # Number of stall cycles due to pending traps
system.switch_cpus.fetch.cacheLines           1199753                       # Number of cache lines fetched
system.switch_cpus.fetch.icacheSquashes           520                       # Number of outstanding Icache misses that were squashed
system.switch_cpus.fetch.nisnDist::samples      5022238                       # Number of instructions fetched each cycle (Total)
system.switch_cpus.fetch.nisnDist::mean      3.517767                       # Number of instructions fetched each cycle (Total)
system.switch_cpus.fetch.nisnDist::stdev     3.573936                       # Number of instructions fetched each cycle (Total)
system.switch_cpus.fetch.nisnDist::underflows            0      0.00%      0.00% # Number of instructions fetched each cycle (Total)
system.switch_cpus.fetch.nisnDist::0          2070249     41.22%     41.22% # Number of instructions fetched each cycle (Total)
system.switch_cpus.fetch.nisnDist::1           259417      5.17%     46.39% # Number of instructions fetched each cycle (Total)
system.switch_cpus.fetch.nisnDist::2           372190      7.41%     53.80% # Number of instructions fetched each cycle (Total)
system.switch_cpus.fetch.nisnDist::3           110826      2.21%     56.00% # Number of instructions fetched each cycle (Total)
system.switch_cpus.fetch.nisnDist::4           113132      2.25%     58.26% # Number of instructions fetched each cycle (Total)
system.switch_cpus.fetch.nisnDist::5           111482      2.22%     60.48% # Number of instructions fetched each cycle (Total)
system.switch_cpus.fetch.nisnDist::6           149494      2.98%     63.45% # Number of instructions fetched each cycle (Total)
system.switch_cpus.fetch.nisnDist::7           259699      5.17%     68.62% # Number of instructions fetched each cycle (Total)
system.switch_cpus.fetch.nisnDist::8          1575749     31.38%    100.00% # Number of instructions fetched each cycle (Total)
system.switch_cpus.fetch.nisnDist::overflows            0      0.00%    100.00% # Number of instructions fetched each cycle (Total)
system.switch_cpus.fetch.nisnDist::min_value            0                       # Number of instructions fetched each cycle (Total)
system.switch_cpus.fetch.nisnDist::max_value            8                       # Number of instructions fetched each cycle (Total)
system.switch_cpus.fetch.nisnDist::total      5022238                       # Number of instructions fetched each cycle (Total)
system.switch_cpus.fetch.branchRate          0.208843                       # Number of branch fetches per cycle
system.switch_cpus.fetch.rate                1.996989                       # Number of inst fetches per cycle
system.switch_cpus.itb.rdAccesses                   0                       # TLB accesses on read requests
system.switch_cpus.itb.wrAccesses             1199784                       # TLB accesses on write requests
system.switch_cpus.itb.rdMisses                     0                       # TLB misses on read requests
system.switch_cpus.itb.wrMisses                    46                       # TLB misses on write requests
system.switch_cpus.itb.walker.power_state.pwrStateResidencyTicks::UNDEFINED   3893042000                       # Cumulative time (in ticks) in various power states
system.switch_cpus.lsq0.forwLoads              149501                       # Number of loads that had data forwarded from stores
system.switch_cpus.lsq0.squashedLoads            4200                       # Number of loads squashed
system.switch_cpus.lsq0.ignoredResponses            4                       # Number of memory responses ignored because the instruction is squashed
system.switch_cpus.lsq0.memOrderViolation           11                       # Number of memory ordering violations
system.switch_cpus.lsq0.squashedStores           1445                       # Number of stores squashed
system.switch_cpus.lsq0.rescheduledLoads           31                       # Number of loads that were rescheduled
system.switch_cpus.lsq0.blockedByCache             74                       # Number of times an access to memory failed due to the cache being blocked
system.switch_cpus.power_state.pwrStateResidencyTicks::OFF   3893042000                       # Cumulative time (in ticks) in various power states
system.switch_cpus.rename.squashCycles            792                       # Number of cycles rename is squashing
system.switch_cpus.rename.idleCycles           943589                       # Number of cycles rename is idle
system.switch_cpus.rename.blockCycles            9345                       # Number of cycles rename is blocking
system.switch_cpus.rename.serializeStallCycles            0                       # count of cycles rename stalledfor serializing inst
system.switch_cpus.rename.runCycles           1846674                       # Number of cycles rename is running
system.switch_cpus.rename.unblockCycles       2221832                       # Number of cycles rename is unblocking
system.switch_cpus.rename.renamedInsts       17656732                       # Number of instructions processed by rename
system.switch_cpus.rename.ROBFullEvents           104                       # Number of times rename has blocked due to ROB full
system.switch_cpus.rename.IQFullEvents        1837348                       # Number of times rename has blocked due to IQ full
system.switch_cpus.rename.SQFullEvents          89211                       # Number of times rename has blocked due to SQ full
system.switch_cpus.rename.renamedOperands     19754780                       # Number of destination operands rename has renamed
system.switch_cpus.rename.lookups            39653641                       # Number of register rename lookups that rename has made
system.switch_cpus.rename.intLookups         16775718                       # Number of integer rename lookups
system.switch_cpus.rename.fpLookups          12995385                       # Number of floating rename lookups
system.switch_cpus.rename.committedMaps      19703464                       # Number of HB maps that are committed
system.switch_cpus.rename.undoneMaps            51168                       # Number of HB maps that are undone due to squashing
system.switch_cpus.rename.serializing               0                       # count of serializing insts renamed
system.switch_cpus.rename.tempSerializing            0                       # count of temporary serializing insts renamed
system.switch_cpus.rename.skidInsts           5185514                       # count of insts added to the skid buffer
system.switch_cpus.rob.reads                 21764344                       # The number of ROB reads
system.switch_cpus.rob.writes                35290426                       # The number of ROB writes
system.switch_cpus.thread_0.numInsts         10000000                       # Number of Instructions committed
system.switch_cpus.thread_0.numOps           17613021                       # Number of Ops committed
system.switch_cpus.thread_0.numMemRefs              0                       # Number of Memory References
system.tol2bus.trans_dist::ReadResp               262                       # Transaction distribution
system.tol2bus.trans_dist::WritebackDirty        13177                       # Transaction distribution
system.tol2bus.trans_dist::WritebackClean           29                       # Transaction distribution
system.tol2bus.trans_dist::CleanEvict            4157                       # Transaction distribution
system.tol2bus.trans_dist::ReadExReq             9419                       # Transaction distribution
system.tol2bus.trans_dist::ReadExResp            9418                       # Transaction distribution
system.tol2bus.trans_dist::ReadCleanReq            33                       # Transaction distribution
system.tol2bus.trans_dist::ReadSharedReq          229                       # Transaction distribution
system.tol2bus.pkt_count_system.cpu.icache.mem_side_port::system.l2.cpu_side_port           95                       # Packet count per connected requestor and responder (bytes)
system.tol2bus.pkt_count_system.cpu.dcache.mem_side_port::system.l2.cpu_side_port        28942                       # Packet count per connected requestor and responder (bytes)
system.tol2bus.pkt_count::total                 29037                       # Packet count per connected requestor and responder (bytes)
system.tol2bus.pkt_size_system.cpu.icache.mem_side_port::system.l2.cpu_side_port         3968                       # Cumulative packet size per connected requestor and responder (bytes)
system.tol2bus.pkt_size_system.cpu.dcache.mem_side_port::system.l2.cpu_side_port      1229632                       # Cumulative packet size per connected requestor and responder (bytes)
system.tol2bus.pkt_size::total                1233600                       # Cumulative packet size per connected requestor and responder (bytes)
system.tol2bus.snoops                            7687                       # Total snoops (count)
system.tol2bus.snoopTraffic                    231104                       # Total snoop traffic (bytes)
system.tol2bus.snoop_fanout::samples            17368                       # Request fanout histogram
system.tol2bus.snoop_fanout::mean            0.056944                       # Request fanout histogram
system.tol2bus.snoop_fanout::stdev           0.231742                       # Request fanout histogram
system.tol2bus.snoop_fanout::underflows             0      0.00%      0.00% # Request fanout histogram
system.tol2bus.snoop_fanout::0                  16379     94.31%     94.31% # Request fanout histogram
system.tol2bus.snoop_fanout::1                    989      5.69%    100.00% # Request fanout histogram
system.tol2bus.snoop_fanout::2                      0      0.00%    100.00% # Request fanout histogram
system.tol2bus.snoop_fanout::3                      0      0.00%    100.00% # Request fanout histogram
system.tol2bus.snoop_fanout::4                      0      0.00%    100.00% # Request fanout histogram
system.tol2bus.snoop_fanout::overflows              0      0.00%    100.00% # Request fanout histogram
system.tol2bus.snoop_fanout::min_value              0                       # Request fanout histogram
system.tol2bus.snoop_fanout::max_value              1                       # Request fanout histogram
system.tol2bus.snoop_fanout::total              17368                       # Request fanout histogram
system.tol2bus.power_state.pwrStateResidencyTicks::UNDEFINED   3893042000                       # Cumulative time (in ticks) in various power states
system.tol2bus.reqLayer0.occupancy           19273500                       # Layer occupancy (ticks)
system.tol2bus.reqLayer0.utilization              0.8                       # Layer utilization (%)
system.tol2bus.respLayer0.occupancy             49500                       # Layer occupancy (ticks)
system.tol2bus.respLayer0.utilization             0.0                       # Layer utilization (%)
system.tol2bus.respLayer1.occupancy          14470500                       # Layer occupancy (ticks)
system.tol2bus.respLayer1.utilization             0.6                       # Layer utilization (%)
system.voltage_domain.voltage                       1                       # Voltage in Volts

---------- End Simulation Statistics   ----------
