
---------- Begin Simulation Statistics ----------
final_tick                                36900603000                       # Number of ticks from beginning of simulation (restored from checkpoints and never reset)
host_inst_rate                                  58467                       # Simulator instruction rate (inst/s)
host_mem_usage                                8810672                       # Number of bytes of host memory used
host_op_rate                                    92633                       # Simulator op (including micro ops) rate (op/s)
host_seconds                                   188.14                       # Real time elapsed on the host
host_tick_rate                              190641097                       # Simulator tick rate (ticks/s)
sim_freq                                 1000000000000                       # Frequency of simulated ticks
sim_insts                                    11000002                       # Number of instructions simulated
sim_ops                                      17427911                       # Number of ops (including micro ops) simulated
sim_seconds                                  0.035867                       # Number of seconds simulated
sim_ticks                                 35867270000                       # Number of ticks simulated
system.cpu.committedInsts                           0                       # Number of instructions committed
system.cpu.committedOps                             0                       # Number of ops (including micro ops) committed
system.cpu.idle_fraction                            0                       # Percentage of idle cycles
system.cpu.not_idle_fraction                        1                       # Percentage of non-idle cycles
system.cpu.numCycles                                0                       # number of cpu cycles simulated
system.cpu.numWorkItemsCompleted                    0                       # number of work items this cpu completed
system.cpu.numWorkItemsStarted                      0                       # number of work items this cpu started
system.cpu.num_busy_cycles                          0                       # Number of busy cycles
system.cpu.num_conditional_control_insts            0                       # number of instructions that are conditional controls
system.cpu.num_fp_alu_accesses                      0                       # Number of float alu accesses
system.cpu.num_fp_insts                             0                       # number of float instructions
system.cpu.num_fp_register_reads                    0                       # number of times the floating registers were read
system.cpu.num_fp_register_writes                   0                       # number of times the floating registers were written
system.cpu.num_func_calls                           0                       # number of times a function call or return occured
system.cpu.num_idle_cycles                          0                       # Number of idle cycles
system.cpu.num_int_alu_accesses                     0                       # Number of integer alu accesses
system.cpu.num_int_insts                            0                       # number of integer instructions
system.cpu.num_int_register_reads                   0                       # number of times the integer registers were read
system.cpu.num_int_register_writes                  0                       # number of times the integer registers were written
system.cpu.num_load_insts                           0                       # Number of load instructions
system.cpu.num_mem_refs                             0                       # number of memory refs
system.cpu.num_store_insts                          0                       # Number of store instructions
system.cpu.num_vec_alu_accesses                     0                       # Number of vector alu accesses
system.cpu.num_vec_insts                            0                       # number of vector instructions
system.cpu.num_vec_register_reads                   0                       # number of times the vector registers were read
system.cpu.num_vec_register_writes                  0                       # number of times the vector registers were written
system.cpu.op_class::No_OpClass                     0                       # Class of executed instruction
system.cpu.op_class::IntAlu                         0                       # Class of executed instruction
system.cpu.op_class::IntMult                        0                       # Class of executed instruction
system.cpu.op_class::IntDiv                         0                       # Class of executed instruction
system.cpu.op_class::FloatAdd                       0                       # Class of executed instruction
system.cpu.op_class::FloatCmp                       0                       # Class of executed instruction
system.cpu.op_class::FloatCvt                       0                       # Class of executed instruction
system.cpu.op_class::FloatMult                      0                       # Class of executed instruction
system.cpu.op_class::FloatMultAcc                   0                       # Class of executed instruction
system.cpu.op_class::FloatDiv                       0                       # Class of executed instruction
system.cpu.op_class::FloatMisc                      0                       # Class of executed instruction
system.cpu.op_class::FloatSqrt                      0                       # Class of executed instruction
system.cpu.op_class::SimdAdd                        0                       # Class of executed instruction
system.cpu.op_class::SimdAddAcc                     0                       # Class of executed instruction
system.cpu.op_class::SimdAlu                        0                       # Class of executed instruction
system.cpu.op_class::SimdCmp                        0                       # Class of executed instruction
system.cpu.op_class::SimdCvt                        0                       # Class of executed instruction
system.cpu.op_class::SimdMisc                       0                       # Class of executed instruction
system.cpu.op_class::SimdMult                       0                       # Class of executed instruction
system.cpu.op_class::SimdMultAcc                    0                       # Class of executed instruction
system.cpu.op_class::SimdShift                      0                       # Class of executed instruction
system.cpu.op_class::SimdShiftAcc                   0                       # Class of executed instruction
system.cpu.op_class::SimdDiv                        0                       # Class of executed instruction
system.cpu.op_class::SimdSqrt                       0                       # Class of executed instruction
system.cpu.op_class::SimdFloatAdd                   0                       # Class of executed instruction
system.cpu.op_class::SimdFloatAlu                   0                       # Class of executed instruction
system.cpu.op_class::SimdFloatCmp                   0                       # Class of executed instruction
system.cpu.op_class::SimdFloatCvt                   0                       # Class of executed instruction
system.cpu.op_class::SimdFloatDiv                   0                       # Class of executed instruction
system.cpu.op_class::SimdFloatMisc                  0                       # Class of executed instruction
system.cpu.op_class::SimdFloatMult                  0                       # Class of executed instruction
system.cpu.op_class::SimdFloatMultAcc               0                       # Class of executed instruction
system.cpu.op_class::SimdFloatSqrt                  0                       # Class of executed instruction
system.cpu.op_class::SimdReduceAdd                  0                       # Class of executed instruction
system.cpu.op_class::SimdReduceAlu                  0                       # Class of executed instruction
system.cpu.op_class::SimdReduceCmp                  0                       # Class of executed instruction
system.cpu.op_class::SimdFloatReduceAdd             0                       # Class of executed instruction
system.cpu.op_class::SimdFloatReduceCmp             0                       # Class of executed instruction
system.cpu.op_class::SimdAes                        0                       # Class of executed instruction
system.cpu.op_class::SimdAesMix                     0                       # Class of executed instruction
system.cpu.op_class::SimdSha1Hash                   0                       # Class of executed instruction
system.cpu.op_class::SimdSha1Hash2                  0                       # Class of executed instruction
system.cpu.op_class::SimdSha256Hash                 0                       # Class of executed instruction
system.cpu.op_class::SimdSha256Hash2                0                       # Class of executed instruction
system.cpu.op_class::SimdShaSigma2                  0                       # Class of executed instruction
system.cpu.op_class::SimdShaSigma3                  0                       # Class of executed instruction
system.cpu.op_class::SimdPredAlu                    0                       # Class of executed instruction
system.cpu.op_class::MemRead                        0                       # Class of executed instruction
system.cpu.op_class::MemWrite                       0                       # Class of executed instruction
system.cpu.op_class::FloatMemRead                   0                       # Class of executed instruction
system.cpu.op_class::FloatMemWrite                  0                       # Class of executed instruction
system.cpu.op_class::IprAccess                      0                       # Class of executed instruction
system.cpu.op_class::InstPrefetch                   0                       # Class of executed instruction
system.cpu.op_class::total                          0                       # Class of executed instruction
system.cpu.workload.numSyscalls                     7                       # Number of system calls
system.membus.snoop_filter.hit_multi_requests            0                       # Number of requests hitting in the snoop filter with multiple (>1) holders of the requested data.
system.membus.snoop_filter.hit_multi_snoops            0                       # Number of snoops hitting in the snoop filter with multiple (>1) holders of the requested data.
system.membus.snoop_filter.hit_single_requests       358128                       # Number of requests hitting in the snoop filter with a single holder of the requested data.
system.membus.snoop_filter.hit_single_snoops            0                       # Number of snoops hitting in the snoop filter with a single holder of the requested data.
system.membus.snoop_filter.tot_requests        720371                       # Total number of requests made to the snoop filter.
system.membus.snoop_filter.tot_snoops               0                       # Total number of snoops made to the snoop filter.
system.switch_cpus.cc_regfile_reads          18599313                       # number of cc regfile reads
system.switch_cpus.cc_regfile_writes         18545529                       # number of cc regfile writes
system.switch_cpus.committedInsts            10000001                       # Number of Instructions Simulated
system.switch_cpus.committedOps              15621644                       # Number of Ops (including micro ops) Simulated
system.switch_cpus.cpi                       7.173453                       # CPI: Cycles Per Instruction
system.switch_cpus.cpi_total                 7.173453                       # CPI: Total CPI of All Threads
system.switch_cpus.fp_regfile_reads            404210                       # number of floating regfile reads
system.switch_cpus.fp_regfile_writes           405307                       # number of floating regfile writes
system.switch_cpus.idleCycles                   37710                       # Total number of cycles that the CPU has spent unscheduled due to idling
system.switch_cpus.iew.branchMispredicts       177040                       # Number of branch mispredicts detected at execute
system.switch_cpus.iew.exec_branches          3645044                       # Number of branches executed
system.switch_cpus.iew.exec_nop                     0                       # number of nop insts executed
system.switch_cpus.iew.exec_rate             0.541694                       # Inst execution rate
system.switch_cpus.iew.exec_refs              8029323                       # number of memory reference insts executed
system.switch_cpus.iew.exec_stores            3647567                       # Number of stores executed
system.switch_cpus.iew.exec_swp                     0                       # number of swp insts executed
system.switch_cpus.iew.iewBlockCycles         3305952                       # Number of cycles IEW is blocking
system.switch_cpus.iew.iewDispLoadInsts       4693584                       # Number of dispatched load instructions
system.switch_cpus.iew.iewDispNonSpecInsts           33                       # Number of dispatched non-speculative instructions
system.switch_cpus.iew.iewDispSquashedInsts        50812                       # Number of squashed instructions skipped by dispatch
system.switch_cpus.iew.iewDispStoreInsts      4002860                       # Number of dispatched store instructions
system.switch_cpus.iew.iewDispatchedInsts     43107495                       # Number of instructions dispatched to IQ
system.switch_cpus.iew.iewExecLoadInsts       4381756                       # Number of load instructions executed
system.switch_cpus.iew.iewExecSquashedInsts       336594                       # Number of squashed instructions skipped in execute
system.switch_cpus.iew.iewExecutedInsts      38858180                       # Number of executed instructions
system.switch_cpus.iew.iewIQFullEvents           1989                       # Number of times the IQ has become full, causing a stall
system.switch_cpus.iew.iewIdleCycles                0                       # Number of cycles IEW is idle
system.switch_cpus.iew.iewLSQFullEvents         29662                       # Number of times the LSQ has become full, causing a stall
system.switch_cpus.iew.iewSquashCycles         265887                       # Number of cycles IEW is squashing
system.switch_cpus.iew.iewUnblockCycles         31004                       # Number of cycles IEW is unblocking
system.switch_cpus.iew.memOrderViolationEvents         1400                       # Number of memory order violations
system.switch_cpus.iew.predictedNotTakenIncorrect        65894                       # Number of branches that were predicted not taken incorrectly
system.switch_cpus.iew.predictedTakenIncorrect       111146                       # Number of branches that were predicted taken incorrectly
system.switch_cpus.iew.wb_consumers          46623165                       # num instructions consuming a value
system.switch_cpus.iew.wb_count              36581712                       # cumulative count of insts written-back
system.switch_cpus.iew.wb_fanout             0.630351                       # average fanout of values written-back
system.switch_cpus.iew.wb_producers          29388941                       # num instructions producing a value
system.switch_cpus.iew.wb_rate               0.509960                       # insts written-back per cycle
system.switch_cpus.iew.wb_sent               38786545                       # cumulative count of insts sent to commit
system.switch_cpus.int_regfile_reads         56403231                       # number of integer regfile reads
system.switch_cpus.int_regfile_writes        31126866                       # number of integer regfile writes
system.switch_cpus.ipc                       0.139403                       # IPC: Instructions Per Cycle
system.switch_cpus.ipc_total                 0.139403                       # IPC: Total IPC of All Threads
system.switch_cpus.iq.FU_type_0::No_OpClass       223094      0.57%      0.57% # Type of FU issued
system.switch_cpus.iq.FU_type_0::IntAlu      30565266     77.98%     78.55% # Type of FU issued
system.switch_cpus.iq.FU_type_0::IntMult       260454      0.66%     79.22% # Type of FU issued
system.switch_cpus.iq.FU_type_0::IntDiv             7      0.00%     79.22% # Type of FU issued
system.switch_cpus.iq.FU_type_0::FloatAdd         2953      0.01%     79.22% # Type of FU issued
system.switch_cpus.iq.FU_type_0::FloatCmp            0      0.00%     79.22% # Type of FU issued
system.switch_cpus.iq.FU_type_0::FloatCvt            0      0.00%     79.22% # Type of FU issued
system.switch_cpus.iq.FU_type_0::FloatMult            0      0.00%     79.22% # Type of FU issued
system.switch_cpus.iq.FU_type_0::FloatMultAcc            0      0.00%     79.22% # Type of FU issued
system.switch_cpus.iq.FU_type_0::FloatDiv            0      0.00%     79.22% # Type of FU issued
system.switch_cpus.iq.FU_type_0::FloatMisc            0      0.00%     79.22% # Type of FU issued
system.switch_cpus.iq.FU_type_0::FloatSqrt            0      0.00%     79.22% # Type of FU issued
system.switch_cpus.iq.FU_type_0::SimdAdd            0      0.00%     79.22% # Type of FU issued
system.switch_cpus.iq.FU_type_0::SimdAddAcc            0      0.00%     79.22% # Type of FU issued
system.switch_cpus.iq.FU_type_0::SimdAlu          210      0.00%     79.22% # Type of FU issued
system.switch_cpus.iq.FU_type_0::SimdCmp            0      0.00%     79.22% # Type of FU issued
system.switch_cpus.iq.FU_type_0::SimdCvt           16      0.00%     79.22% # Type of FU issued
system.switch_cpus.iq.FU_type_0::SimdMisc         1015      0.00%     79.23% # Type of FU issued
system.switch_cpus.iq.FU_type_0::SimdMult            0      0.00%     79.23% # Type of FU issued
system.switch_cpus.iq.FU_type_0::SimdMultAcc            0      0.00%     79.23% # Type of FU issued
system.switch_cpus.iq.FU_type_0::SimdShift            0      0.00%     79.23% # Type of FU issued
system.switch_cpus.iq.FU_type_0::SimdShiftAcc            0      0.00%     79.23% # Type of FU issued
system.switch_cpus.iq.FU_type_0::SimdDiv            0      0.00%     79.23% # Type of FU issued
system.switch_cpus.iq.FU_type_0::SimdSqrt            0      0.00%     79.23% # Type of FU issued
system.switch_cpus.iq.FU_type_0::SimdFloatAdd            0      0.00%     79.23% # Type of FU issued
system.switch_cpus.iq.FU_type_0::SimdFloatAlu            0      0.00%     79.23% # Type of FU issued
system.switch_cpus.iq.FU_type_0::SimdFloatCmp            0      0.00%     79.23% # Type of FU issued
system.switch_cpus.iq.FU_type_0::SimdFloatCvt            0      0.00%     79.23% # Type of FU issued
system.switch_cpus.iq.FU_type_0::SimdFloatDiv            0      0.00%     79.23% # Type of FU issued
system.switch_cpus.iq.FU_type_0::SimdFloatMisc            0      0.00%     79.23% # Type of FU issued
system.switch_cpus.iq.FU_type_0::SimdFloatMult            0      0.00%     79.23% # Type of FU issued
system.switch_cpus.iq.FU_type_0::SimdFloatMultAcc            0      0.00%     79.23% # Type of FU issued
system.switch_cpus.iq.FU_type_0::SimdFloatSqrt            0      0.00%     79.23% # Type of FU issued
system.switch_cpus.iq.FU_type_0::SimdReduceAdd            0      0.00%     79.23% # Type of FU issued
system.switch_cpus.iq.FU_type_0::SimdReduceAlu            0      0.00%     79.23% # Type of FU issued
system.switch_cpus.iq.FU_type_0::SimdReduceCmp            0      0.00%     79.23% # Type of FU issued
system.switch_cpus.iq.FU_type_0::SimdFloatReduceAdd            0      0.00%     79.23% # Type of FU issued
system.switch_cpus.iq.FU_type_0::SimdFloatReduceCmp            0      0.00%     79.23% # Type of FU issued
system.switch_cpus.iq.FU_type_0::SimdAes            0      0.00%     79.23% # Type of FU issued
system.switch_cpus.iq.FU_type_0::SimdAesMix            0      0.00%     79.23% # Type of FU issued
system.switch_cpus.iq.FU_type_0::SimdSha1Hash            0      0.00%     79.23% # Type of FU issued
system.switch_cpus.iq.FU_type_0::SimdSha1Hash2            0      0.00%     79.23% # Type of FU issued
system.switch_cpus.iq.FU_type_0::SimdSha256Hash            0      0.00%     79.23% # Type of FU issued
system.switch_cpus.iq.FU_type_0::SimdSha256Hash2            0      0.00%     79.23% # Type of FU issued
system.switch_cpus.iq.FU_type_0::SimdShaSigma2            0      0.00%     79.23% # Type of FU issued
system.switch_cpus.iq.FU_type_0::SimdShaSigma3            0      0.00%     79.23% # Type of FU issued
system.switch_cpus.iq.FU_type_0::SimdPredAlu            0      0.00%     79.23% # Type of FU issued
system.switch_cpus.iq.FU_type_0::MemRead      4022008     10.26%     89.49% # Type of FU issued
system.switch_cpus.iq.FU_type_0::MemWrite      3305569      8.43%     97.92% # Type of FU issued
system.switch_cpus.iq.FU_type_0::FloatMemRead       410475      1.05%     98.97% # Type of FU issued
system.switch_cpus.iq.FU_type_0::FloatMemWrite       403711      1.03%    100.00% # Type of FU issued
system.switch_cpus.iq.FU_type_0::IprAccess            0      0.00%    100.00% # Type of FU issued
system.switch_cpus.iq.FU_type_0::InstPrefetch            0      0.00%    100.00% # Type of FU issued
system.switch_cpus.iq.FU_type_0::total       39194778                       # Type of FU issued
system.switch_cpus.iq.fp_alu_accesses          960271                       # Number of floating point alu accesses
system.switch_cpus.iq.fp_inst_queue_reads      1779510                       # Number of floating instruction queue reads
system.switch_cpus.iq.fp_inst_queue_wakeup_accesses       804091                       # Number of floating instruction queue wakeup accesses
system.switch_cpus.iq.fp_inst_queue_writes      1597142                       # Number of floating instruction queue writes
system.switch_cpus.iq.fu_busy_cnt              433485                       # FU busy when requested
system.switch_cpus.iq.fu_busy_rate           0.011060                       # FU busy rate (busy events/executed inst)
system.switch_cpus.iq.fu_full::No_OpClass            0      0.00%      0.00% # attempts to use FU when none available
system.switch_cpus.iq.fu_full::IntAlu          210958     48.67%     48.67% # attempts to use FU when none available
system.switch_cpus.iq.fu_full::IntMult              0      0.00%     48.67% # attempts to use FU when none available
system.switch_cpus.iq.fu_full::IntDiv               0      0.00%     48.67% # attempts to use FU when none available
system.switch_cpus.iq.fu_full::FloatAdd             0      0.00%     48.67% # attempts to use FU when none available
system.switch_cpus.iq.fu_full::FloatCmp             0      0.00%     48.67% # attempts to use FU when none available
system.switch_cpus.iq.fu_full::FloatCvt             0      0.00%     48.67% # attempts to use FU when none available
system.switch_cpus.iq.fu_full::FloatMult            0      0.00%     48.67% # attempts to use FU when none available
system.switch_cpus.iq.fu_full::FloatMultAcc            0      0.00%     48.67% # attempts to use FU when none available
system.switch_cpus.iq.fu_full::FloatDiv             0      0.00%     48.67% # attempts to use FU when none available
system.switch_cpus.iq.fu_full::FloatMisc            0      0.00%     48.67% # attempts to use FU when none available
system.switch_cpus.iq.fu_full::FloatSqrt            0      0.00%     48.67% # attempts to use FU when none available
system.switch_cpus.iq.fu_full::SimdAdd              0      0.00%     48.67% # attempts to use FU when none available
system.switch_cpus.iq.fu_full::SimdAddAcc            0      0.00%     48.67% # attempts to use FU when none available
system.switch_cpus.iq.fu_full::SimdAlu              1      0.00%     48.67% # attempts to use FU when none available
system.switch_cpus.iq.fu_full::SimdCmp              0      0.00%     48.67% # attempts to use FU when none available
system.switch_cpus.iq.fu_full::SimdCvt              0      0.00%     48.67% # attempts to use FU when none available
system.switch_cpus.iq.fu_full::SimdMisc             0      0.00%     48.67% # attempts to use FU when none available
system.switch_cpus.iq.fu_full::SimdMult             0      0.00%     48.67% # attempts to use FU when none available
system.switch_cpus.iq.fu_full::SimdMultAcc            0      0.00%     48.67% # attempts to use FU when none available
system.switch_cpus.iq.fu_full::SimdShift            0      0.00%     48.67% # attempts to use FU when none available
system.switch_cpus.iq.fu_full::SimdShiftAcc            0      0.00%     48.67% # attempts to use FU when none available
system.switch_cpus.iq.fu_full::SimdDiv              0      0.00%     48.67% # attempts to use FU when none available
system.switch_cpus.iq.fu_full::SimdSqrt             0      0.00%     48.67% # attempts to use FU when none available
system.switch_cpus.iq.fu_full::SimdFloatAdd            0      0.00%     48.67% # attempts to use FU when none available
system.switch_cpus.iq.fu_full::SimdFloatAlu            0      0.00%     48.67% # attempts to use FU when none available
system.switch_cpus.iq.fu_full::SimdFloatCmp            0      0.00%     48.67% # attempts to use FU when none available
system.switch_cpus.iq.fu_full::SimdFloatCvt            0      0.00%     48.67% # attempts to use FU when none available
system.switch_cpus.iq.fu_full::SimdFloatDiv            0      0.00%     48.67% # attempts to use FU when none available
system.switch_cpus.iq.fu_full::SimdFloatMisc            0      0.00%     48.67% # attempts to use FU when none available
system.switch_cpus.iq.fu_full::SimdFloatMult            0      0.00%     48.67% # attempts to use FU when none available
system.switch_cpus.iq.fu_full::SimdFloatMultAcc            0      0.00%     48.67% # attempts to use FU when none available
system.switch_cpus.iq.fu_full::SimdFloatSqrt            0      0.00%     48.67% # attempts to use FU when none available
system.switch_cpus.iq.fu_full::SimdReduceAdd            0      0.00%     48.67% # attempts to use FU when none available
system.switch_cpus.iq.fu_full::SimdReduceAlu            0      0.00%     48.67% # attempts to use FU when none available
system.switch_cpus.iq.fu_full::SimdReduceCmp            0      0.00%     48.67% # attempts to use FU when none available
system.switch_cpus.iq.fu_full::SimdFloatReduceAdd            0      0.00%     48.67% # attempts to use FU when none available
system.switch_cpus.iq.fu_full::SimdFloatReduceCmp            0      0.00%     48.67% # attempts to use FU when none available
system.switch_cpus.iq.fu_full::SimdAes              0      0.00%     48.67% # attempts to use FU when none available
system.switch_cpus.iq.fu_full::SimdAesMix            0      0.00%     48.67% # attempts to use FU when none available
system.switch_cpus.iq.fu_full::SimdSha1Hash            0      0.00%     48.67% # attempts to use FU when none available
system.switch_cpus.iq.fu_full::SimdSha1Hash2            0      0.00%     48.67% # attempts to use FU when none available
system.switch_cpus.iq.fu_full::SimdSha256Hash            0      0.00%     48.67% # attempts to use FU when none available
system.switch_cpus.iq.fu_full::SimdSha256Hash2            0      0.00%     48.67% # attempts to use FU when none available
system.switch_cpus.iq.fu_full::SimdShaSigma2            0      0.00%     48.67% # attempts to use FU when none available
system.switch_cpus.iq.fu_full::SimdShaSigma3            0      0.00%     48.67% # attempts to use FU when none available
system.switch_cpus.iq.fu_full::SimdPredAlu            0      0.00%     48.67% # attempts to use FU when none available
system.switch_cpus.iq.fu_full::MemRead          14385      3.32%     51.98% # attempts to use FU when none available
system.switch_cpus.iq.fu_full::MemWrite         66338     15.30%     67.29% # attempts to use FU when none available
system.switch_cpus.iq.fu_full::FloatMemRead       116812     26.95%     94.23% # attempts to use FU when none available
system.switch_cpus.iq.fu_full::FloatMemWrite        24991      5.77%    100.00% # attempts to use FU when none available
system.switch_cpus.iq.fu_full::IprAccess            0      0.00%    100.00% # attempts to use FU when none available
system.switch_cpus.iq.fu_full::InstPrefetch            0      0.00%    100.00% # attempts to use FU when none available
system.switch_cpus.iq.int_alu_accesses       38444898                       # Number of integer alu accesses
system.switch_cpus.iq.int_inst_queue_reads    148748661                       # Number of integer instruction queue reads
system.switch_cpus.iq.int_inst_queue_wakeup_accesses     35777621                       # Number of integer instruction queue wakeup accesses
system.switch_cpus.iq.int_inst_queue_writes     68997528                       # Number of integer instruction queue writes
system.switch_cpus.iq.iqInstsAdded           43106106                       # Number of instructions added to the IQ (excludes non-spec)
system.switch_cpus.iq.iqInstsIssued          39194778                       # Number of instructions issued
system.switch_cpus.iq.iqNonSpecInstsAdded         1389                       # Number of non-speculative instructions added to the IQ
system.switch_cpus.iq.iqSquashedInstsExamined     27485829                       # Number of squashed instructions iterated over during squash; mainly for profiling
system.switch_cpus.iq.iqSquashedInstsIssued         8304                       # Number of squashed instructions issued
system.switch_cpus.iq.iqSquashedNonSpecRemoved         1264                       # Number of squashed non-spec instructions that were removed
system.switch_cpus.iq.iqSquashedOperandsExamined     20941818                       # Number of squashed operands that are examined and possibly removed from graph
system.switch_cpus.iq.issued_per_cycle::samples     71696830                       # Number of insts issued each cycle
system.switch_cpus.iq.issued_per_cycle::mean     0.546674                       # Number of insts issued each cycle
system.switch_cpus.iq.issued_per_cycle::stdev     1.567200                       # Number of insts issued each cycle
system.switch_cpus.iq.issued_per_cycle::underflows            0      0.00%      0.00% # Number of insts issued each cycle
system.switch_cpus.iq.issued_per_cycle::0     62019957     86.50%     86.50% # Number of insts issued each cycle
system.switch_cpus.iq.issued_per_cycle::1      1100146      1.53%     88.04% # Number of insts issued each cycle
system.switch_cpus.iq.issued_per_cycle::2      1118522      1.56%     89.60% # Number of insts issued each cycle
system.switch_cpus.iq.issued_per_cycle::3      2490548      3.47%     93.07% # Number of insts issued each cycle
system.switch_cpus.iq.issued_per_cycle::4      1022811      1.43%     94.50% # Number of insts issued each cycle
system.switch_cpus.iq.issued_per_cycle::5       949474      1.32%     95.82% # Number of insts issued each cycle
system.switch_cpus.iq.issued_per_cycle::6      1981191      2.76%     98.59% # Number of insts issued each cycle
system.switch_cpus.iq.issued_per_cycle::7       453264      0.63%     99.22% # Number of insts issued each cycle
system.switch_cpus.iq.issued_per_cycle::8       560917      0.78%    100.00% # Number of insts issued each cycle
system.switch_cpus.iq.issued_per_cycle::overflows            0      0.00%    100.00% # Number of insts issued each cycle
system.switch_cpus.iq.issued_per_cycle::min_value            0                       # Number of insts issued each cycle
system.switch_cpus.iq.issued_per_cycle::max_value            8                       # Number of insts issued each cycle
system.switch_cpus.iq.issued_per_cycle::total     71696830                       # Number of insts issued each cycle
system.switch_cpus.iq.rate                   0.546386                       # Inst issue rate
system.switch_cpus.iq.vec_alu_accesses              0                       # Number of vector alu accesses
system.switch_cpus.iq.vec_inst_queue_reads            0                       # Number of vector instruction queue reads
system.switch_cpus.iq.vec_inst_queue_wakeup_accesses            0                       # Number of vector instruction queue wakeup accesses
system.switch_cpus.iq.vec_inst_queue_writes            0                       # Number of vector instruction queue writes
system.switch_cpus.memDep0.conflictingLoads       408035                       # Number of conflicting loads.
system.switch_cpus.memDep0.conflictingStores        80530                       # Number of conflicting stores.
system.switch_cpus.memDep0.insertedLoads      4693584                       # Number of loads inserted to the mem dependence unit.
system.switch_cpus.memDep0.insertedStores      4002860                       # Number of stores inserted to the mem dependence unit.
system.switch_cpus.misc_regfile_reads        15674268                       # number of misc regfile reads
system.switch_cpus.numCycles                 71734540                       # number of cpu cycles simulated
system.switch_cpus.numWorkItemsCompleted            0                       # number of work items this cpu completed
system.switch_cpus.numWorkItemsStarted              0                       # number of work items this cpu started
system.switch_cpus.timesIdled                     303                       # Number of times that the entire CPU went into an idle state and unscheduled itself
system.tol2bus.snoop_filter.hit_multi_requests            1                       # Number of requests hitting in the snoop filter with multiple (>1) holders of the requested data.
system.tol2bus.snoop_filter.hit_multi_snoops            0                       # Number of snoops hitting in the snoop filter with multiple (>1) holders of the requested data.
system.tol2bus.snoop_filter.hit_single_requests       367189                       # Number of requests hitting in the snoop filter with a single holder of the requested data.
system.tol2bus.snoop_filter.hit_single_snoops          162                       # Number of snoops hitting in the snoop filter with a single holder of the requested data.
system.tol2bus.snoop_filter.tot_requests       734537                       # Total number of requests made to the snoop filter.
system.tol2bus.snoop_filter.tot_snoops            162                       # Total number of snoops made to the snoop filter.
system.clk_domain.clock                          1000                       # Clock period in ticks
system.cpu.dcache.demand_hits::.switch_cpus.data      4651152                       # number of demand (read+write) hits
system.cpu.dcache.demand_hits::total          4651152                       # number of demand (read+write) hits
system.cpu.dcache.overall_hits::.switch_cpus.data      4747426                       # number of overall hits
system.cpu.dcache.overall_hits::total         4747426                       # number of overall hits
system.cpu.dcache.demand_misses::.switch_cpus.data       371127                       # number of demand (read+write) misses
system.cpu.dcache.demand_misses::total         371127                       # number of demand (read+write) misses
system.cpu.dcache.overall_misses::.switch_cpus.data       373517                       # number of overall misses
system.cpu.dcache.overall_misses::total        373517                       # number of overall misses
system.cpu.dcache.demand_miss_latency::.switch_cpus.data  29896570498                       # number of demand (read+write) miss cycles
system.cpu.dcache.demand_miss_latency::total  29896570498                       # number of demand (read+write) miss cycles
system.cpu.dcache.overall_miss_latency::.switch_cpus.data  29896570498                       # number of overall miss cycles
system.cpu.dcache.overall_miss_latency::total  29896570498                       # number of overall miss cycles
system.cpu.dcache.demand_accesses::.switch_cpus.data      5022279                       # number of demand (read+write) accesses
system.cpu.dcache.demand_accesses::total      5022279                       # number of demand (read+write) accesses
system.cpu.dcache.overall_accesses::.switch_cpus.data      5120943                       # number of overall (read+write) accesses
system.cpu.dcache.overall_accesses::total      5120943                       # number of overall (read+write) accesses
system.cpu.dcache.demand_miss_rate::.switch_cpus.data     0.073896                       # miss rate for demand accesses
system.cpu.dcache.demand_miss_rate::total     0.073896                       # miss rate for demand accesses
system.cpu.dcache.overall_miss_rate::.switch_cpus.data     0.072939                       # miss rate for overall accesses
system.cpu.dcache.overall_miss_rate::total     0.072939                       # miss rate for overall accesses
system.cpu.dcache.demand_avg_miss_latency::.switch_cpus.data 80556.172141                       # average overall miss latency
system.cpu.dcache.demand_avg_miss_latency::total 80556.172141                       # average overall miss latency
system.cpu.dcache.overall_avg_miss_latency::.switch_cpus.data 80040.722371                       # average overall miss latency
system.cpu.dcache.overall_avg_miss_latency::total 80040.722371                       # average overall miss latency
system.cpu.dcache.blocked_cycles::no_mshrs          636                       # number of cycles access was blocked
system.cpu.dcache.blocked_cycles::no_targets          436                       # number of cycles access was blocked
system.cpu.dcache.blocked::no_mshrs                28                       # number of cycles access was blocked
system.cpu.dcache.blocked::no_targets               7                       # number of cycles access was blocked
system.cpu.dcache.avg_blocked_cycles::no_mshrs    22.714286                       # average number of cycles each access was blocked
system.cpu.dcache.avg_blocked_cycles::no_targets    62.285714                       # average number of cycles each access was blocked
system.cpu.dcache.writebacks::.writebacks       364338                       # number of writebacks
system.cpu.dcache.writebacks::total            364338                       # number of writebacks
system.cpu.dcache.demand_mshr_hits::.switch_cpus.data         5053                       # number of demand (read+write) MSHR hits
system.cpu.dcache.demand_mshr_hits::total         5053                       # number of demand (read+write) MSHR hits
system.cpu.dcache.overall_mshr_hits::.switch_cpus.data         5053                       # number of overall MSHR hits
system.cpu.dcache.overall_mshr_hits::total         5053                       # number of overall MSHR hits
system.cpu.dcache.demand_mshr_misses::.switch_cpus.data       366074                       # number of demand (read+write) MSHR misses
system.cpu.dcache.demand_mshr_misses::total       366074                       # number of demand (read+write) MSHR misses
system.cpu.dcache.overall_mshr_misses::.switch_cpus.data       366760                       # number of overall MSHR misses
system.cpu.dcache.overall_mshr_misses::total       366760                       # number of overall MSHR misses
system.cpu.dcache.demand_mshr_miss_latency::.switch_cpus.data  29439248498                       # number of demand (read+write) MSHR miss cycles
system.cpu.dcache.demand_mshr_miss_latency::total  29439248498                       # number of demand (read+write) MSHR miss cycles
system.cpu.dcache.overall_mshr_miss_latency::.switch_cpus.data  29481078998                       # number of overall MSHR miss cycles
system.cpu.dcache.overall_mshr_miss_latency::total  29481078998                       # number of overall MSHR miss cycles
system.cpu.dcache.demand_mshr_miss_rate::.switch_cpus.data     0.072890                       # mshr miss rate for demand accesses
system.cpu.dcache.demand_mshr_miss_rate::total     0.072890                       # mshr miss rate for demand accesses
system.cpu.dcache.overall_mshr_miss_rate::.switch_cpus.data     0.071620                       # mshr miss rate for overall accesses
system.cpu.dcache.overall_mshr_miss_rate::total     0.071620                       # mshr miss rate for overall accesses
system.cpu.dcache.demand_avg_mshr_miss_latency::.switch_cpus.data 80418.845638                       # average overall mshr miss latency
system.cpu.dcache.demand_avg_mshr_miss_latency::total 80418.845638                       # average overall mshr miss latency
system.cpu.dcache.overall_avg_mshr_miss_latency::.switch_cpus.data 80382.481726                       # average overall mshr miss latency
system.cpu.dcache.overall_avg_mshr_miss_latency::total 80382.481726                       # average overall mshr miss latency
system.cpu.dcache.replacements                 366759                       # number of replacements
system.cpu.dcache.ReadReq_hits::.switch_cpus.data      4009389                       # number of ReadReq hits
system.cpu.dcache.ReadReq_hits::total         4009389                       # number of ReadReq hits
system.cpu.dcache.ReadReq_misses::.switch_cpus.data         9299                       # number of ReadReq misses
system.cpu.dcache.ReadReq_misses::total          9299                       # number of ReadReq misses
system.cpu.dcache.ReadReq_miss_latency::.switch_cpus.data    160043500                       # number of ReadReq miss cycles
system.cpu.dcache.ReadReq_miss_latency::total    160043500                       # number of ReadReq miss cycles
system.cpu.dcache.ReadReq_accesses::.switch_cpus.data      4018688                       # number of ReadReq accesses(hits+misses)
system.cpu.dcache.ReadReq_accesses::total      4018688                       # number of ReadReq accesses(hits+misses)
system.cpu.dcache.ReadReq_miss_rate::.switch_cpus.data     0.002314                       # miss rate for ReadReq accesses
system.cpu.dcache.ReadReq_miss_rate::total     0.002314                       # miss rate for ReadReq accesses
system.cpu.dcache.ReadReq_avg_miss_latency::.switch_cpus.data 17210.829121                       # average ReadReq miss latency
system.cpu.dcache.ReadReq_avg_miss_latency::total 17210.829121                       # average ReadReq miss latency
system.cpu.dcache.ReadReq_mshr_hits::.switch_cpus.data         5050                       # number of ReadReq MSHR hits
system.cpu.dcache.ReadReq_mshr_hits::total         5050                       # number of ReadReq MSHR hits
system.cpu.dcache.ReadReq_mshr_misses::.switch_cpus.data         4249                       # number of ReadReq MSHR misses
system.cpu.dcache.ReadReq_mshr_misses::total         4249                       # number of ReadReq MSHR misses
system.cpu.dcache.ReadReq_mshr_miss_latency::.switch_cpus.data     64773500                       # number of ReadReq MSHR miss cycles
system.cpu.dcache.ReadReq_mshr_miss_latency::total     64773500                       # number of ReadReq MSHR miss cycles
system.cpu.dcache.ReadReq_mshr_miss_rate::.switch_cpus.data     0.001057                       # mshr miss rate for ReadReq accesses
system.cpu.dcache.ReadReq_mshr_miss_rate::total     0.001057                       # mshr miss rate for ReadReq accesses
system.cpu.dcache.ReadReq_avg_mshr_miss_latency::.switch_cpus.data 15244.410450                       # average ReadReq mshr miss latency
system.cpu.dcache.ReadReq_avg_mshr_miss_latency::total 15244.410450                       # average ReadReq mshr miss latency
system.cpu.dcache.WriteReq_hits::.switch_cpus.data       641763                       # number of WriteReq hits
system.cpu.dcache.WriteReq_hits::total         641763                       # number of WriteReq hits
system.cpu.dcache.WriteReq_misses::.switch_cpus.data       361828                       # number of WriteReq misses
system.cpu.dcache.WriteReq_misses::total       361828                       # number of WriteReq misses
system.cpu.dcache.WriteReq_miss_latency::.switch_cpus.data  29736526998                       # number of WriteReq miss cycles
system.cpu.dcache.WriteReq_miss_latency::total  29736526998                       # number of WriteReq miss cycles
system.cpu.dcache.WriteReq_accesses::.switch_cpus.data      1003591                       # number of WriteReq accesses(hits+misses)
system.cpu.dcache.WriteReq_accesses::total      1003591                       # number of WriteReq accesses(hits+misses)
system.cpu.dcache.WriteReq_miss_rate::.switch_cpus.data     0.360533                       # miss rate for WriteReq accesses
system.cpu.dcache.WriteReq_miss_rate::total     0.360533                       # miss rate for WriteReq accesses
system.cpu.dcache.WriteReq_avg_miss_latency::.switch_cpus.data 82184.151028                       # average WriteReq miss latency
system.cpu.dcache.WriteReq_avg_miss_latency::total 82184.151028                       # average WriteReq miss latency
system.cpu.dcache.WriteReq_mshr_hits::.switch_cpus.data            3                       # number of WriteReq MSHR hits
system.cpu.dcache.WriteReq_mshr_hits::total            3                       # number of WriteReq MSHR hits
system.cpu.dcache.WriteReq_mshr_misses::.switch_cpus.data       361825                       # number of WriteReq MSHR misses
system.cpu.dcache.WriteReq_mshr_misses::total       361825                       # number of WriteReq MSHR misses
system.cpu.dcache.WriteReq_mshr_miss_latency::.switch_cpus.data  29374474998                       # number of WriteReq MSHR miss cycles
system.cpu.dcache.WriteReq_mshr_miss_latency::total  29374474998                       # number of WriteReq MSHR miss cycles
system.cpu.dcache.WriteReq_mshr_miss_rate::.switch_cpus.data     0.360530                       # mshr miss rate for WriteReq accesses
system.cpu.dcache.WriteReq_mshr_miss_rate::total     0.360530                       # mshr miss rate for WriteReq accesses
system.cpu.dcache.WriteReq_avg_mshr_miss_latency::.switch_cpus.data 81184.205066                       # average WriteReq mshr miss latency
system.cpu.dcache.WriteReq_avg_mshr_miss_latency::total 81184.205066                       # average WriteReq mshr miss latency
system.cpu.dcache.SoftPFReq_hits::.switch_cpus.data        96274                       # number of SoftPFReq hits
system.cpu.dcache.SoftPFReq_hits::total         96274                       # number of SoftPFReq hits
system.cpu.dcache.SoftPFReq_misses::.switch_cpus.data         2390                       # number of SoftPFReq misses
system.cpu.dcache.SoftPFReq_misses::total         2390                       # number of SoftPFReq misses
system.cpu.dcache.SoftPFReq_accesses::.switch_cpus.data        98664                       # number of SoftPFReq accesses(hits+misses)
system.cpu.dcache.SoftPFReq_accesses::total        98664                       # number of SoftPFReq accesses(hits+misses)
system.cpu.dcache.SoftPFReq_miss_rate::.switch_cpus.data     0.024224                       # miss rate for SoftPFReq accesses
system.cpu.dcache.SoftPFReq_miss_rate::total     0.024224                       # miss rate for SoftPFReq accesses
system.cpu.dcache.SoftPFReq_mshr_misses::.switch_cpus.data          686                       # number of SoftPFReq MSHR misses
system.cpu.dcache.SoftPFReq_mshr_misses::total          686                       # number of SoftPFReq MSHR misses
system.cpu.dcache.SoftPFReq_mshr_miss_latency::.switch_cpus.data     41830500                       # number of SoftPFReq MSHR miss cycles
system.cpu.dcache.SoftPFReq_mshr_miss_latency::total     41830500                       # number of SoftPFReq MSHR miss cycles
system.cpu.dcache.SoftPFReq_mshr_miss_rate::.switch_cpus.data     0.006953                       # mshr miss rate for SoftPFReq accesses
system.cpu.dcache.SoftPFReq_mshr_miss_rate::total     0.006953                       # mshr miss rate for SoftPFReq accesses
system.cpu.dcache.SoftPFReq_avg_mshr_miss_latency::.switch_cpus.data 60977.405248                       # average SoftPFReq mshr miss latency
system.cpu.dcache.SoftPFReq_avg_mshr_miss_latency::total 60977.405248                       # average SoftPFReq mshr miss latency
system.cpu.dcache.power_state.pwrStateResidencyTicks::UNDEFINED  36900603000                       # Cumulative time (in ticks) in various power states
system.cpu.dcache.tags.tagsinuse          1023.116766                       # Cycle average of tags in use
system.cpu.dcache.tags.total_refs             5291892                       # Total number of references to valid blocks.
system.cpu.dcache.tags.sampled_refs            367783                       # Sample count of references to valid blocks.
system.cpu.dcache.tags.avg_refs             14.388626                       # Average number of references to valid blocks.
system.cpu.dcache.tags.warmup_cycle                 0                       # Cycle when the warmup percentage was hit.
system.cpu.dcache.tags.occ_blocks::.cpu.data   854.085098                       # Average occupied blocks per requestor
system.cpu.dcache.tags.occ_blocks::.switch_cpus.data   169.031669                       # Average occupied blocks per requestor
system.cpu.dcache.tags.occ_percent::.cpu.data     0.834067                       # Average percentage of cache occupancy
system.cpu.dcache.tags.occ_percent::.switch_cpus.data     0.165070                       # Average percentage of cache occupancy
system.cpu.dcache.tags.occ_percent::total     0.999137                       # Average percentage of cache occupancy
system.cpu.dcache.tags.occ_task_id_blocks::1024         1024                       # Occupied blocks per task id
system.cpu.dcache.tags.age_task_id_blocks_1024::0            2                       # Occupied blocks per task id
system.cpu.dcache.tags.age_task_id_blocks_1024::1           22                       # Occupied blocks per task id
system.cpu.dcache.tags.age_task_id_blocks_1024::2          889                       # Occupied blocks per task id
system.cpu.dcache.tags.age_task_id_blocks_1024::3          102                       # Occupied blocks per task id
system.cpu.dcache.tags.age_task_id_blocks_1024::4            9                       # Occupied blocks per task id
system.cpu.dcache.tags.occ_task_id_percent::1024            1                       # Percentage of cache occupancy per task id
system.cpu.dcache.tags.tag_accesses          10608646                       # Number of tag accesses
system.cpu.dcache.tags.data_accesses         10608646                       # Number of data accesses
system.cpu.dcache.tags.power_state.pwrStateResidencyTicks::UNDEFINED  36900603000                       # Cumulative time (in ticks) in various power states
system.cpu.dtb.rdAccesses                           0                       # TLB accesses on read requests
system.cpu.dtb.wrAccesses                           0                       # TLB accesses on write requests
system.cpu.dtb.rdMisses                             0                       # TLB misses on read requests
system.cpu.dtb.wrMisses                             0                       # TLB misses on write requests
system.cpu.dtb.walker.power_state.pwrStateResidencyTicks::UNDEFINED  36900603000                       # Cumulative time (in ticks) in various power states
system.cpu.dtb_walker_cache.blocked_cycles::no_mshrs            0                       # number of cycles access was blocked
system.cpu.dtb_walker_cache.blocked_cycles::no_targets            0                       # number of cycles access was blocked
system.cpu.dtb_walker_cache.blocked::no_mshrs            0                       # number of cycles access was blocked
system.cpu.dtb_walker_cache.blocked::no_targets            0                       # number of cycles access was blocked
system.cpu.dtb_walker_cache.avg_blocked_cycles::no_mshrs          nan                       # average number of cycles each access was blocked
system.cpu.dtb_walker_cache.avg_blocked_cycles::no_targets          nan                       # average number of cycles each access was blocked
system.cpu.dtb_walker_cache.replacements            0                       # number of replacements
system.cpu.dtb_walker_cache.power_state.pwrStateResidencyTicks::UNDEFINED  36900603000                       # Cumulative time (in ticks) in various power states
system.cpu.dtb_walker_cache.tags.tagsinuse            0                       # Cycle average of tags in use
system.cpu.dtb_walker_cache.tags.total_refs            0                       # Total number of references to valid blocks.
system.cpu.dtb_walker_cache.tags.sampled_refs            0                       # Sample count of references to valid blocks.
system.cpu.dtb_walker_cache.tags.avg_refs          nan                       # Average number of references to valid blocks.
system.cpu.dtb_walker_cache.tags.warmup_cycle            0                       # Cycle when the warmup percentage was hit.
system.cpu.dtb_walker_cache.tags.tag_accesses            0                       # Number of tag accesses
system.cpu.dtb_walker_cache.tags.data_accesses            0                       # Number of data accesses
system.cpu.dtb_walker_cache.tags.power_state.pwrStateResidencyTicks::UNDEFINED  36900603000                       # Cumulative time (in ticks) in various power states
system.cpu.icache.demand_hits::.switch_cpus.inst      2398780                       # number of demand (read+write) hits
system.cpu.icache.demand_hits::total          2398780                       # number of demand (read+write) hits
system.cpu.icache.overall_hits::.switch_cpus.inst      2398780                       # number of overall hits
system.cpu.icache.overall_hits::total         2398780                       # number of overall hits
system.cpu.icache.demand_misses::.switch_cpus.inst          756                       # number of demand (read+write) misses
system.cpu.icache.demand_misses::total            756                       # number of demand (read+write) misses
system.cpu.icache.overall_misses::.switch_cpus.inst          756                       # number of overall misses
system.cpu.icache.overall_misses::total           756                       # number of overall misses
system.cpu.icache.demand_miss_latency::.switch_cpus.inst     53140500                       # number of demand (read+write) miss cycles
system.cpu.icache.demand_miss_latency::total     53140500                       # number of demand (read+write) miss cycles
system.cpu.icache.overall_miss_latency::.switch_cpus.inst     53140500                       # number of overall miss cycles
system.cpu.icache.overall_miss_latency::total     53140500                       # number of overall miss cycles
system.cpu.icache.demand_accesses::.switch_cpus.inst      2399536                       # number of demand (read+write) accesses
system.cpu.icache.demand_accesses::total      2399536                       # number of demand (read+write) accesses
system.cpu.icache.overall_accesses::.switch_cpus.inst      2399536                       # number of overall (read+write) accesses
system.cpu.icache.overall_accesses::total      2399536                       # number of overall (read+write) accesses
system.cpu.icache.demand_miss_rate::.switch_cpus.inst     0.000315                       # miss rate for demand accesses
system.cpu.icache.demand_miss_rate::total     0.000315                       # miss rate for demand accesses
system.cpu.icache.overall_miss_rate::.switch_cpus.inst     0.000315                       # miss rate for overall accesses
system.cpu.icache.overall_miss_rate::total     0.000315                       # miss rate for overall accesses
system.cpu.icache.demand_avg_miss_latency::.switch_cpus.inst 70291.666667                       # average overall miss latency
system.cpu.icache.demand_avg_miss_latency::total 70291.666667                       # average overall miss latency
system.cpu.icache.overall_avg_miss_latency::.switch_cpus.inst 70291.666667                       # average overall miss latency
system.cpu.icache.overall_avg_miss_latency::total 70291.666667                       # average overall miss latency
system.cpu.icache.blocked_cycles::no_mshrs          299                       # number of cycles access was blocked
system.cpu.icache.blocked_cycles::no_targets            0                       # number of cycles access was blocked
system.cpu.icache.blocked::no_mshrs                 7                       # number of cycles access was blocked
system.cpu.icache.blocked::no_targets               0                       # number of cycles access was blocked
system.cpu.icache.avg_blocked_cycles::no_mshrs    42.714286                       # average number of cycles each access was blocked
system.cpu.icache.avg_blocked_cycles::no_targets          nan                       # average number of cycles each access was blocked
system.cpu.icache.writebacks::.writebacks          430                       # number of writebacks
system.cpu.icache.writebacks::total               430                       # number of writebacks
system.cpu.icache.demand_mshr_hits::.switch_cpus.inst          168                       # number of demand (read+write) MSHR hits
system.cpu.icache.demand_mshr_hits::total          168                       # number of demand (read+write) MSHR hits
system.cpu.icache.overall_mshr_hits::.switch_cpus.inst          168                       # number of overall MSHR hits
system.cpu.icache.overall_mshr_hits::total          168                       # number of overall MSHR hits
system.cpu.icache.demand_mshr_misses::.switch_cpus.inst          588                       # number of demand (read+write) MSHR misses
system.cpu.icache.demand_mshr_misses::total          588                       # number of demand (read+write) MSHR misses
system.cpu.icache.overall_mshr_misses::.switch_cpus.inst          588                       # number of overall MSHR misses
system.cpu.icache.overall_mshr_misses::total          588                       # number of overall MSHR misses
system.cpu.icache.demand_mshr_miss_latency::.switch_cpus.inst     40920000                       # number of demand (read+write) MSHR miss cycles
system.cpu.icache.demand_mshr_miss_latency::total     40920000                       # number of demand (read+write) MSHR miss cycles
system.cpu.icache.overall_mshr_miss_latency::.switch_cpus.inst     40920000                       # number of overall MSHR miss cycles
system.cpu.icache.overall_mshr_miss_latency::total     40920000                       # number of overall MSHR miss cycles
system.cpu.icache.demand_mshr_miss_rate::.switch_cpus.inst     0.000245                       # mshr miss rate for demand accesses
system.cpu.icache.demand_mshr_miss_rate::total     0.000245                       # mshr miss rate for demand accesses
system.cpu.icache.overall_mshr_miss_rate::.switch_cpus.inst     0.000245                       # mshr miss rate for overall accesses
system.cpu.icache.overall_mshr_miss_rate::total     0.000245                       # mshr miss rate for overall accesses
system.cpu.icache.demand_avg_mshr_miss_latency::.switch_cpus.inst 69591.836735                       # average overall mshr miss latency
system.cpu.icache.demand_avg_mshr_miss_latency::total 69591.836735                       # average overall mshr miss latency
system.cpu.icache.overall_avg_mshr_miss_latency::.switch_cpus.inst 69591.836735                       # average overall mshr miss latency
system.cpu.icache.overall_avg_mshr_miss_latency::total 69591.836735                       # average overall mshr miss latency
system.cpu.icache.replacements                    430                       # number of replacements
system.cpu.icache.ReadReq_hits::.switch_cpus.inst      2398780                       # number of ReadReq hits
system.cpu.icache.ReadReq_hits::total         2398780                       # number of ReadReq hits
system.cpu.icache.ReadReq_misses::.switch_cpus.inst          756                       # number of ReadReq misses
system.cpu.icache.ReadReq_misses::total           756                       # number of ReadReq misses
system.cpu.icache.ReadReq_miss_latency::.switch_cpus.inst     53140500                       # number of ReadReq miss cycles
system.cpu.icache.ReadReq_miss_latency::total     53140500                       # number of ReadReq miss cycles
system.cpu.icache.ReadReq_accesses::.switch_cpus.inst      2399536                       # number of ReadReq accesses(hits+misses)
system.cpu.icache.ReadReq_accesses::total      2399536                       # number of ReadReq accesses(hits+misses)
system.cpu.icache.ReadReq_miss_rate::.switch_cpus.inst     0.000315                       # miss rate for ReadReq accesses
system.cpu.icache.ReadReq_miss_rate::total     0.000315                       # miss rate for ReadReq accesses
system.cpu.icache.ReadReq_avg_miss_latency::.switch_cpus.inst 70291.666667                       # average ReadReq miss latency
system.cpu.icache.ReadReq_avg_miss_latency::total 70291.666667                       # average ReadReq miss latency
system.cpu.icache.ReadReq_mshr_hits::.switch_cpus.inst          168                       # number of ReadReq MSHR hits
system.cpu.icache.ReadReq_mshr_hits::total          168                       # number of ReadReq MSHR hits
system.cpu.icache.ReadReq_mshr_misses::.switch_cpus.inst          588                       # number of ReadReq MSHR misses
system.cpu.icache.ReadReq_mshr_misses::total          588                       # number of ReadReq MSHR misses
system.cpu.icache.ReadReq_mshr_miss_latency::.switch_cpus.inst     40920000                       # number of ReadReq MSHR miss cycles
system.cpu.icache.ReadReq_mshr_miss_latency::total     40920000                       # number of ReadReq MSHR miss cycles
system.cpu.icache.ReadReq_mshr_miss_rate::.switch_cpus.inst     0.000245                       # mshr miss rate for ReadReq accesses
system.cpu.icache.ReadReq_mshr_miss_rate::total     0.000245                       # mshr miss rate for ReadReq accesses
system.cpu.icache.ReadReq_avg_mshr_miss_latency::.switch_cpus.inst 69591.836735                       # average ReadReq mshr miss latency
system.cpu.icache.ReadReq_avg_mshr_miss_latency::total 69591.836735                       # average ReadReq mshr miss latency
system.cpu.icache.power_state.pwrStateResidencyTicks::UNDEFINED  36900603000                       # Cumulative time (in ticks) in various power states
system.cpu.icache.tags.tagsinuse           804.724004                       # Cycle average of tags in use
system.cpu.icache.tags.total_refs             3650635                       # Total number of references to valid blocks.
system.cpu.icache.tags.sampled_refs              1371                       # Sample count of references to valid blocks.
system.cpu.icache.tags.avg_refs           2662.753465                       # Average number of references to valid blocks.
system.cpu.icache.tags.warmup_cycle                 0                       # Cycle when the warmup percentage was hit.
system.cpu.icache.tags.occ_blocks::.cpu.inst   740.604529                       # Average occupied blocks per requestor
system.cpu.icache.tags.occ_blocks::.switch_cpus.inst    64.119475                       # Average occupied blocks per requestor
system.cpu.icache.tags.occ_percent::.cpu.inst     0.723247                       # Average percentage of cache occupancy
system.cpu.icache.tags.occ_percent::.switch_cpus.inst     0.062617                       # Average percentage of cache occupancy
system.cpu.icache.tags.occ_percent::total     0.785863                       # Average percentage of cache occupancy
system.cpu.icache.tags.occ_task_id_blocks::1024          941                       # Occupied blocks per task id
system.cpu.icache.tags.age_task_id_blocks_1024::2            4                       # Occupied blocks per task id
system.cpu.icache.tags.age_task_id_blocks_1024::3          463                       # Occupied blocks per task id
system.cpu.icache.tags.age_task_id_blocks_1024::4          474                       # Occupied blocks per task id
system.cpu.icache.tags.occ_task_id_percent::1024     0.918945                       # Percentage of cache occupancy per task id
system.cpu.icache.tags.tag_accesses           4799660                       # Number of tag accesses
system.cpu.icache.tags.data_accesses          4799660                       # Number of data accesses
system.cpu.icache.tags.power_state.pwrStateResidencyTicks::UNDEFINED  36900603000                       # Cumulative time (in ticks) in various power states
system.cpu.interrupts.clk_domain.clock           8000                       # Clock period in ticks
system.cpu.itb.rdAccesses                           0                       # TLB accesses on read requests
system.cpu.itb.wrAccesses                           0                       # TLB accesses on write requests
system.cpu.itb.rdMisses                             0                       # TLB misses on read requests
system.cpu.itb.wrMisses                             0                       # TLB misses on write requests
system.cpu.itb.walker.power_state.pwrStateResidencyTicks::UNDEFINED  36900603000                       # Cumulative time (in ticks) in various power states
system.cpu.itb_walker_cache.blocked_cycles::no_mshrs            0                       # number of cycles access was blocked
system.cpu.itb_walker_cache.blocked_cycles::no_targets            0                       # number of cycles access was blocked
system.cpu.itb_walker_cache.blocked::no_mshrs            0                       # number of cycles access was blocked
system.cpu.itb_walker_cache.blocked::no_targets            0                       # number of cycles access was blocked
system.cpu.itb_walker_cache.avg_blocked_cycles::no_mshrs          nan                       # average number of cycles each access was blocked
system.cpu.itb_walker_cache.avg_blocked_cycles::no_targets          nan                       # average number of cycles each access was blocked
system.cpu.itb_walker_cache.replacements            0                       # number of replacements
system.cpu.itb_walker_cache.power_state.pwrStateResidencyTicks::UNDEFINED  36900603000                       # Cumulative time (in ticks) in various power states
system.cpu.itb_walker_cache.tags.tagsinuse            0                       # Cycle average of tags in use
system.cpu.itb_walker_cache.tags.total_refs            0                       # Total number of references to valid blocks.
system.cpu.itb_walker_cache.tags.sampled_refs            0                       # Sample count of references to valid blocks.
system.cpu.itb_walker_cache.tags.avg_refs          nan                       # Average number of references to valid blocks.
system.cpu.itb_walker_cache.tags.warmup_cycle            0                       # Cycle when the warmup percentage was hit.
system.cpu.itb_walker_cache.tags.tag_accesses            0                       # Number of tag accesses
system.cpu.itb_walker_cache.tags.data_accesses            0                       # Number of data accesses
system.cpu.itb_walker_cache.tags.power_state.pwrStateResidencyTicks::UNDEFINED  36900603000                       # Cumulative time (in ticks) in various power states
system.cpu.power_state.pwrStateResidencyTicks::OFF  35867270000                       # Cumulative time (in ticks) in various power states
system.cpu.thread_0.numInsts                        0                       # Number of Instructions committed
system.cpu.thread_0.numOps                          0                       # Number of Ops committed
system.cpu.thread_0.numMemRefs                      0                       # Number of Memory References
system.cpu_clk_domain.clock                       500                       # Clock period in ticks
system.cpu_voltage_domain.voltage                   1                       # Voltage in Volts
system.l2.demand_hits::.switch_cpus.inst           92                       # number of demand (read+write) hits
system.l2.demand_hits::.switch_cpus.data         5012                       # number of demand (read+write) hits
system.l2.demand_hits::total                     5104                       # number of demand (read+write) hits
system.l2.overall_hits::.switch_cpus.inst           92                       # number of overall hits
system.l2.overall_hits::.switch_cpus.data         5012                       # number of overall hits
system.l2.overall_hits::total                    5104                       # number of overall hits
system.l2.demand_misses::.switch_cpus.inst          496                       # number of demand (read+write) misses
system.l2.demand_misses::.switch_cpus.data       361748                       # number of demand (read+write) misses
system.l2.demand_misses::total                 362244                       # number of demand (read+write) misses
system.l2.overall_misses::.switch_cpus.inst          496                       # number of overall misses
system.l2.overall_misses::.switch_cpus.data       361748                       # number of overall misses
system.l2.overall_misses::total                362244                       # number of overall misses
system.l2.demand_miss_latency::.switch_cpus.inst     39061500                       # number of demand (read+write) miss cycles
system.l2.demand_miss_latency::.switch_cpus.data  28744010500                       # number of demand (read+write) miss cycles
system.l2.demand_miss_latency::total      28783072000                       # number of demand (read+write) miss cycles
system.l2.overall_miss_latency::.switch_cpus.inst     39061500                       # number of overall miss cycles
system.l2.overall_miss_latency::.switch_cpus.data  28744010500                       # number of overall miss cycles
system.l2.overall_miss_latency::total     28783072000                       # number of overall miss cycles
system.l2.demand_accesses::.switch_cpus.inst          588                       # number of demand (read+write) accesses
system.l2.demand_accesses::.switch_cpus.data       366760                       # number of demand (read+write) accesses
system.l2.demand_accesses::total               367348                       # number of demand (read+write) accesses
system.l2.overall_accesses::.switch_cpus.inst          588                       # number of overall (read+write) accesses
system.l2.overall_accesses::.switch_cpus.data       366760                       # number of overall (read+write) accesses
system.l2.overall_accesses::total              367348                       # number of overall (read+write) accesses
system.l2.demand_miss_rate::.switch_cpus.inst     0.843537                       # miss rate for demand accesses
system.l2.demand_miss_rate::.switch_cpus.data     0.986334                       # miss rate for demand accesses
system.l2.demand_miss_rate::total            0.986106                       # miss rate for demand accesses
system.l2.overall_miss_rate::.switch_cpus.inst     0.843537                       # miss rate for overall accesses
system.l2.overall_miss_rate::.switch_cpus.data     0.986334                       # miss rate for overall accesses
system.l2.overall_miss_rate::total           0.986106                       # miss rate for overall accesses
system.l2.demand_avg_miss_latency::.switch_cpus.inst 78753.024194                       # average overall miss latency
system.l2.demand_avg_miss_latency::.switch_cpus.data 79458.657684                       # average overall miss latency
system.l2.demand_avg_miss_latency::total 79457.691501                       # average overall miss latency
system.l2.overall_avg_miss_latency::.switch_cpus.inst 78753.024194                       # average overall miss latency
system.l2.overall_avg_miss_latency::.switch_cpus.data 79458.657684                       # average overall miss latency
system.l2.overall_avg_miss_latency::total 79457.691501                       # average overall miss latency
system.l2.blocked_cycles::no_mshrs                  0                       # number of cycles access was blocked
system.l2.blocked_cycles::no_targets                0                       # number of cycles access was blocked
system.l2.blocked::no_mshrs                         0                       # number of cycles access was blocked
system.l2.blocked::no_targets                       0                       # number of cycles access was blocked
system.l2.avg_blocked_cycles::no_mshrs            nan                       # average number of cycles each access was blocked
system.l2.avg_blocked_cycles::no_targets          nan                       # average number of cycles each access was blocked
system.l2.writebacks::.writebacks              357510                       # number of writebacks
system.l2.writebacks::total                    357510                       # number of writebacks
system.l2.demand_mshr_misses::.switch_cpus.inst          496                       # number of demand (read+write) MSHR misses
system.l2.demand_mshr_misses::.switch_cpus.data       361748                       # number of demand (read+write) MSHR misses
system.l2.demand_mshr_misses::total            362244                       # number of demand (read+write) MSHR misses
system.l2.overall_mshr_misses::.switch_cpus.inst          496                       # number of overall MSHR misses
system.l2.overall_mshr_misses::.switch_cpus.data       361748                       # number of overall MSHR misses
system.l2.overall_mshr_misses::total           362244                       # number of overall MSHR misses
system.l2.demand_mshr_miss_latency::.switch_cpus.inst     34101500                       # number of demand (read+write) MSHR miss cycles
system.l2.demand_mshr_miss_latency::.switch_cpus.data  25126530500                       # number of demand (read+write) MSHR miss cycles
system.l2.demand_mshr_miss_latency::total  25160632000                       # number of demand (read+write) MSHR miss cycles
system.l2.overall_mshr_miss_latency::.switch_cpus.inst     34101500                       # number of overall MSHR miss cycles
system.l2.overall_mshr_miss_latency::.switch_cpus.data  25126530500                       # number of overall MSHR miss cycles
system.l2.overall_mshr_miss_latency::total  25160632000                       # number of overall MSHR miss cycles
system.l2.demand_mshr_miss_rate::.switch_cpus.inst     0.843537                       # mshr miss rate for demand accesses
system.l2.demand_mshr_miss_rate::.switch_cpus.data     0.986334                       # mshr miss rate for demand accesses
system.l2.demand_mshr_miss_rate::total       0.986106                       # mshr miss rate for demand accesses
system.l2.overall_mshr_miss_rate::.switch_cpus.inst     0.843537                       # mshr miss rate for overall accesses
system.l2.overall_mshr_miss_rate::.switch_cpus.data     0.986334                       # mshr miss rate for overall accesses
system.l2.overall_mshr_miss_rate::total      0.986106                       # mshr miss rate for overall accesses
system.l2.demand_avg_mshr_miss_latency::.switch_cpus.inst 68753.024194                       # average overall mshr miss latency
system.l2.demand_avg_mshr_miss_latency::.switch_cpus.data 69458.657684                       # average overall mshr miss latency
system.l2.demand_avg_mshr_miss_latency::total 69457.691501                       # average overall mshr miss latency
system.l2.overall_avg_mshr_miss_latency::.switch_cpus.inst 68753.024194                       # average overall mshr miss latency
system.l2.overall_avg_mshr_miss_latency::.switch_cpus.data 69458.657684                       # average overall mshr miss latency
system.l2.overall_avg_mshr_miss_latency::total 69457.691501                       # average overall mshr miss latency
system.l2.replacements                         358289                       # number of replacements
system.l2.WritebackDirty_hits::.writebacks       364338                       # number of WritebackDirty hits
system.l2.WritebackDirty_hits::total           364338                       # number of WritebackDirty hits
system.l2.WritebackDirty_accesses::.writebacks       364338                       # number of WritebackDirty accesses(hits+misses)
system.l2.WritebackDirty_accesses::total       364338                       # number of WritebackDirty accesses(hits+misses)
system.l2.WritebackClean_hits::.writebacks          429                       # number of WritebackClean hits
system.l2.WritebackClean_hits::total              429                       # number of WritebackClean hits
system.l2.WritebackClean_accesses::.writebacks          429                       # number of WritebackClean accesses(hits+misses)
system.l2.WritebackClean_accesses::total          429                       # number of WritebackClean accesses(hits+misses)
system.l2.ReadExReq_hits::.switch_cpus.data          760                       # number of ReadExReq hits
system.l2.ReadExReq_hits::total                   760                       # number of ReadExReq hits
system.l2.ReadExReq_misses::.switch_cpus.data       361065                       # number of ReadExReq misses
system.l2.ReadExReq_misses::total              361065                       # number of ReadExReq misses
system.l2.ReadExReq_miss_latency::.switch_cpus.data  28689898000                       # number of ReadExReq miss cycles
system.l2.ReadExReq_miss_latency::total   28689898000                       # number of ReadExReq miss cycles
system.l2.ReadExReq_accesses::.switch_cpus.data       361825                       # number of ReadExReq accesses(hits+misses)
system.l2.ReadExReq_accesses::total            361825                       # number of ReadExReq accesses(hits+misses)
system.l2.ReadExReq_miss_rate::.switch_cpus.data     0.997900                       # miss rate for ReadExReq accesses
system.l2.ReadExReq_miss_rate::total         0.997900                       # miss rate for ReadExReq accesses
system.l2.ReadExReq_avg_miss_latency::.switch_cpus.data 79459.094623                       # average ReadExReq miss latency
system.l2.ReadExReq_avg_miss_latency::total 79459.094623                       # average ReadExReq miss latency
system.l2.ReadExReq_mshr_misses::.switch_cpus.data       361065                       # number of ReadExReq MSHR misses
system.l2.ReadExReq_mshr_misses::total         361065                       # number of ReadExReq MSHR misses
system.l2.ReadExReq_mshr_miss_latency::.switch_cpus.data  25079248000                       # number of ReadExReq MSHR miss cycles
system.l2.ReadExReq_mshr_miss_latency::total  25079248000                       # number of ReadExReq MSHR miss cycles
system.l2.ReadExReq_mshr_miss_rate::.switch_cpus.data     0.997900                       # mshr miss rate for ReadExReq accesses
system.l2.ReadExReq_mshr_miss_rate::total     0.997900                       # mshr miss rate for ReadExReq accesses
system.l2.ReadExReq_avg_mshr_miss_latency::.switch_cpus.data 69459.094623                       # average ReadExReq mshr miss latency
system.l2.ReadExReq_avg_mshr_miss_latency::total 69459.094623                       # average ReadExReq mshr miss latency
system.l2.ReadCleanReq_hits::.switch_cpus.inst           92                       # number of ReadCleanReq hits
[...]
system.switch_cpus.commit.committedInstType_0::FloatSqrt            0      0.00%     83.38% # Class of committed instruction
system.switch_cpus.commit.committedInstType_0::SimdAdd            0      0.00%     83.38% # Class of committed instruction
system.switch_cpus.commit.committedInstType_0::SimdAddAcc            0      0.00%     83.38% # Class of committed instruction
system.switch_cpus.commit.committedInstType_0::SimdAlu           38      0.00%     83.38% # Class of committed instruction
system.switch_cpus.commit.committedInstType_0::SimdCmp            0      0.00%     83.38% # Class of committed instruction
system.switch_cpus.commit.committedInstType_0::SimdCvt           16      0.00%     83.38% # Class of committed instruction
system.switch_cpus.commit.committedInstType_0::SimdMisc          195      0.00%     83.39% # Class of committed instruction
system.switch_cpus.commit.committedInstType_0::SimdMult            0      0.00%     83.39% # Class of committed instruction
system.switch_cpus.commit.committedInstType_0::SimdMultAcc            0      0.00%     83.39% # Class of committed instruction
system.switch_cpus.commit.committedInstType_0::SimdShift            0      0.00%     83.39% # Class of committed instruction
system.switch_cpus.commit.committedInstType_0::SimdShiftAcc            0      0.00%     83.39% # Class of committed instruction
system.switch_cpus.commit.committedInstType_0::SimdDiv            0      0.00%     83.39% # Class of committed instruction
system.switch_cpus.commit.committedInstType_0::SimdSqrt            0      0.00%     83.39% # Class of committed instruction
system.switch_cpus.commit.committedInstType_0::SimdFloatAdd            0      0.00%     83.39% # Class of committed instruction
system.switch_cpus.commit.committedInstType_0::SimdFloatAlu            0      0.00%     83.39% # Class of committed instruction
system.switch_cpus.commit.committedInstType_0::SimdFloatCmp            0      0.00%     83.39% # Class of committed instruction
system.switch_cpus.commit.committedInstType_0::SimdFloatCvt            0      0.00%     83.39% # Class of committed instruction
system.switch_cpus.commit.committedInstType_0::SimdFloatDiv            0      0.00%     83.39% # Class of committed instruction
system.switch_cpus.commit.committedInstType_0::SimdFloatMisc            0      0.00%     83.39% # Class of committed instruction
system.switch_cpus.commit.committedInstType_0::SimdFloatMult            0      0.00%     83.39% # Class of committed instruction
system.switch_cpus.commit.committedInstType_0::SimdFloatMultAcc            0      0.00%     83.39% # Class of committed instruction
system.switch_cpus.commit.committedInstType_0::SimdFloatSqrt            0      0.00%     83.39% # Class of committed instruction
system.switch_cpus.commit.committedInstType_0::SimdReduceAdd            0      0.00%     83.39% # Class of committed instruction
system.switch_cpus.commit.committedInstType_0::SimdReduceAlu            0      0.00%     83.39% # Class of committed instruction
system.switch_cpus.commit.committedInstType_0::SimdReduceCmp            0      0.00%     83.39% # Class of committed instruction
system.switch_cpus.commit.committedInstType_0::SimdFloatReduceAdd            0      0.00%     83.39% # Class of committed instruction
system.switch_cpus.commit.committedInstType_0::SimdFloatReduceCmp            0      0.00%     83.39% # Class of committed instruction
system.switch_cpus.commit.committedInstType_0::SimdAes            0      0.00%     83.39% # Class of committed instruction
system.switch_cpus.commit.committedInstType_0::SimdAesMix            0      0.00%     83.39% # Class of committed instruction
system.switch_cpus.commit.committedInstType_0::SimdSha1Hash            0      0.00%     83.39% # Class of committed instruction
system.switch_cpus.commit.committedInstType_0::SimdSha1Hash2            0      0.00%     83.39% # Class of committed instruction
system.switch_cpus.commit.committedInstType_0::SimdSha256Hash            0      0.00%     83.39% # Class of committed instruction
system.switch_cpus.commit.committedInstType_0::SimdSha256Hash2            0      0.00%     83.39% # Class of committed instruction
system.switch_cpus.commit.committedInstType_0::SimdShaSigma2            0      0.00%     83.39% # Class of committed instruction
system.switch_cpus.commit.committedInstType_0::SimdShaSigma3            0      0.00%     83.39% # Class of committed instruction
system.switch_cpus.commit.committedInstType_0::SimdPredAlu            0      0.00%     83.39% # Class of committed instruction
system.switch_cpus.commit.committedInstType_0::MemRead      1552130      9.94%     93.32% # Class of committed instruction
system.switch_cpus.commit.committedInstType_0::MemWrite       959935      6.14%     99.47% # Class of committed instruction
system.switch_cpus.commit.committedInstType_0::FloatMemRead        41594      0.27%     99.73% # Class of committed instruction
system.switch_cpus.commit.committedInstType_0::FloatMemWrite        41766      0.27%    100.00% # Class of committed instruction
system.switch_cpus.commit.committedInstType_0::IprAccess            0      0.00%    100.00% # Class of committed instruction
system.switch_cpus.commit.committedInstType_0::InstPrefetch            0      0.00%    100.00% # Class of committed instruction
system.switch_cpus.commit.committedInstType_0::total     15621644                       # Class of committed instruction
system.switch_cpus.commit.commitEligibleSamples       869269                       # number cycles where commit BW limit reached
system.switch_cpus.decode.idleCycles          2089080                       # Number of cycles decode is idle
system.switch_cpus.decode.blockedCycles      61602222                       # Number of cycles decode is blocked
system.switch_cpus.decode.runCycles           6908847                       # Number of cycles decode is running
system.switch_cpus.decode.unblockCycles        830789                       # Number of cycles decode is unblocking
system.switch_cpus.decode.squashCycles         265887                       # Number of cycles decode is squashing
system.switch_cpus.decode.branchResolved      3746900                       # Number of times decode resolved a  branch
system.switch_cpus.decode.branchMispred           472                       # Number of times decode detected a branch misprediction
system.switch_cpus.decode.decodedInsts       45410983                       # Number of instructions handled by decode
system.switch_cpus.decode.squashedInsts          2059                       # Number of squashed instructions handled by decode
system.switch_cpus.dtb.rdAccesses             4384768                       # TLB accesses on read requests
system.switch_cpus.dtb.wrAccesses             3649509                       # TLB accesses on write requests
system.switch_cpus.dtb.rdMisses                   219                       # TLB misses on read requests
system.switch_cpus.dtb.wrMisses               2052535                       # TLB misses on write requests
system.switch_cpus.dtb.walker.power_state.pwrStateResidencyTicks::UNDEFINED  36900603000                       # Cumulative time (in ticks) in various power states
system.switch_cpus.fetch.icacheStallCycles      2540420                       # Number of cycles fetch is stalled on an Icache miss
system.switch_cpus.fetch.insts               30651633                       # Number of instructions fetch has processed
system.switch_cpus.fetch.branches             4769367                       # Number of branches that fetch encountered
system.switch_cpus.fetch.predictedBranches      4222480                       # Number of branches that fetch has predicted taken
system.switch_cpus.fetch.cycles              68889386                       # Number of cycles fetch has run and was not squashing or blocked
system.switch_cpus.fetch.squashCycles          532694                       # Number of cycles fetch has spent squashing
system.switch_cpus.fetch.miscStallCycles           84                       # Number of cycles fetch has spent waiting on interrupts,or bad addresses, or out of MSHRs
system.switch_cpus.fetch.pendingTrapStallCycles          564                       # Number of stall cycles due to pending traps
system.switch_cpus.fetch.icacheWaitRetryStallCycles           29                       # Number of stall cycles due to full MSHR
system.switch_cpus.fetch.cacheLines           2399536                       # Number of cache lines fetched
system.switch_cpus.fetch.icacheSquashes         44302                       # Number of outstanding Icache misses that were squashed
system.switch_cpus.fetch.nisnDist::samples     71696830                       # Number of instructions fetched each cycle (Total)
system.switch_cpus.fetch.nisnDist::mean      0.708832                       # Number of instructions fetched each cycle (Total)
system.switch_cpus.fetch.nisnDist::stdev     2.104542                       # Number of instructions fetched each cycle (Total)
system.switch_cpus.fetch.nisnDist::underflows            0      0.00%      0.00% # Number of instructions fetched each cycle (Total)
system.switch_cpus.fetch.nisnDist::0         61792973     86.19%     86.19% # Number of instructions fetched each cycle (Total)
system.switch_cpus.fetch.nisnDist::1          2729642      3.81%     89.99% # Number of instructions fetched each cycle (Total)
system.switch_cpus.fetch.nisnDist::2           336906      0.47%     90.46% # Number of instructions fetched each cycle (Total)
system.switch_cpus.fetch.nisnDist::3           579011      0.81%     91.27% # Number of instructions fetched each cycle (Total)
system.switch_cpus.fetch.nisnDist::4           447059      0.62%     91.89% # Number of instructions fetched each cycle (Total)
system.switch_cpus.fetch.nisnDist::5           620482      0.87%     92.76% # Number of instructions fetched each cycle (Total)
system.switch_cpus.fetch.nisnDist::6           228199      0.32%     93.08% # Number of instructions fetched each cycle (Total)
system.switch_cpus.fetch.nisnDist::7           279763      0.39%     93.47% # Number of instructions fetched each cycle (Total)
system.switch_cpus.fetch.nisnDist::8          4682795      6.53%    100.00% # Number of instructions fetched each cycle (Total)
system.switch_cpus.fetch.nisnDist::overflows            0      0.00%    100.00% # Number of instructions fetched each cycle (Total)
system.switch_cpus.fetch.nisnDist::min_value            0                       # Number of instructions fetched each cycle (Total)
system.switch_cpus.fetch.nisnDist::max_value            8                       # Number of instructions fetched each cycle (Total)
system.switch_cpus.fetch.nisnDist::total     71696830                       # Number of instructions fetched each cycle (Total)
system.switch_cpus.fetch.branchRate          0.066486                       # Number of branch fetches per cycle
system.switch_cpus.fetch.rate                0.427293                       # Number of inst fetches per cycle
system.switch_cpus.itb.rdAccesses                   0                       # TLB accesses on read requests
system.switch_cpus.itb.wrAccesses             2399626                       # TLB accesses on write requests
system.switch_cpus.itb.rdMisses                     0                       # TLB misses on read requests
system.switch_cpus.itb.wrMisses                   130                       # TLB misses on write requests
system.switch_cpus.itb.walker.power_state.pwrStateResidencyTicks::UNDEFINED  36900603000                       # Cumulative time (in ticks) in various power states
system.switch_cpus.lsq0.forwLoads              267193                       # Number of loads that had data forwarded from stores
system.switch_cpus.lsq0.squashedLoads         3099858                       # Number of loads squashed
system.switch_cpus.lsq0.ignoredResponses         3090                       # Number of memory responses ignored because the instruction is squashed
system.switch_cpus.lsq0.memOrderViolation         1400                       # Number of memory ordering violations
system.switch_cpus.lsq0.squashedStores        3001158                       # Number of stores squashed
system.switch_cpus.lsq0.rescheduledLoads            1                       # Number of loads that were rescheduled
system.switch_cpus.lsq0.blockedByCache             35                       # Number of times an access to memory failed due to the cache being blocked
system.switch_cpus.power_state.pwrStateResidencyTicks::OFF  36900603000                       # Cumulative time (in ticks) in various power states
system.switch_cpus.rename.squashCycles         265887                       # Number of cycles rename is squashing
system.switch_cpus.rename.idleCycles          2502617                       # Number of cycles rename is idle
system.switch_cpus.rename.blockCycles        60127560                       # Number of cycles rename is blocking
system.switch_cpus.rename.serializeStallCycles            0                       # count of cycles rename stalledfor serializing inst
system.switch_cpus.rename.runCycles           7312596                       # Number of cycles rename is running
system.switch_cpus.rename.unblockCycles       1488165                       # Number of cycles rename is unblocking
system.switch_cpus.rename.renamedInsts       44302335                       # Number of instructions processed by rename
system.switch_cpus.rename.ROBFullEvents        269247                       # Number of times rename has blocked due to ROB full
system.switch_cpus.rename.IQFullEvents         619278                       # Number of times rename has blocked due to IQ full
system.switch_cpus.rename.LQFullEvents            439                       # Number of times rename has blocked due to LQ full
system.switch_cpus.rename.SQFullEvents         553435                       # Number of times rename has blocked due to SQ full
system.switch_cpus.rename.renamedOperands     58462834                       # Number of destination operands rename has renamed
system.switch_cpus.rename.lookups           106987923                       # Number of register rename lookups that rename has made
system.switch_cpus.rename.intLookups         67725564                       # Number of integer rename lookups
system.switch_cpus.rename.fpLookups            433688                       # Number of floating rename lookups
system.switch_cpus.rename.committedMaps      21895928                       # Number of HB maps that are committed
system.switch_cpus.rename.undoneMaps         36566843                       # Number of HB maps that are undone due to squashing
system.switch_cpus.rename.serializing               0                       # count of serializing insts renamed
system.switch_cpus.rename.tempSerializing            0                       # count of temporary serializing insts renamed
system.switch_cpus.rename.skidInsts           2554853                       # count of insts added to the skid buffer
system.switch_cpus.rob.reads                108782760                       # The number of ROB reads
system.switch_cpus.rob.writes                89122287                       # The number of ROB writes
system.switch_cpus.thread_0.numInsts         10000001                       # Number of Instructions committed
system.switch_cpus.thread_0.numOps           15621644                       # Number of Ops committed
system.switch_cpus.thread_0.numMemRefs              0                       # Number of Memory References
system.tol2bus.trans_dist::ReadResp              5523                       # Transaction distribution
system.tol2bus.trans_dist::WritebackDirty       721848                       # Transaction distribution
system.tol2bus.trans_dist::WritebackClean          430                       # Transaction distribution
system.tol2bus.trans_dist::CleanEvict            3200                       # Transaction distribution
system.tol2bus.trans_dist::ReadExReq           361825                       # Transaction distribution
system.tol2bus.trans_dist::ReadExResp          361825                       # Transaction distribution
system.tol2bus.trans_dist::ReadCleanReq           588                       # Transaction distribution
system.tol2bus.trans_dist::ReadSharedReq         4935                       # Transaction distribution
system.tol2bus.pkt_count_system.cpu.icache.mem_side_port::system.l2.cpu_side_port         1606                       # Packet count per connected requestor and responder (bytes)
system.tol2bus.pkt_count_system.cpu.dcache.mem_side_port::system.l2.cpu_side_port      1100279                       # Packet count per connected requestor and responder (bytes)
system.tol2bus.pkt_count::total               1101885                       # Packet count per connected requestor and responder (bytes)
system.tol2bus.pkt_size_system.cpu.icache.mem_side_port::system.l2.cpu_side_port        65152                       # Cumulative packet size per connected requestor and responder (bytes)
system.tol2bus.pkt_size_system.cpu.dcache.mem_side_port::system.l2.cpu_side_port     46790272                       # Cumulative packet size per connected requestor and responder (bytes)
system.tol2bus.pkt_size::total               46855424                       # Cumulative packet size per connected requestor and responder (bytes)
system.tol2bus.snoops                          358289                       # Total snoops (count)
system.tol2bus.snoopTraffic                  22880640                       # Total snoop traffic (bytes)
system.tol2bus.snoop_fanout::samples           725637                       # Request fanout histogram
system.tol2bus.snoop_fanout::mean            0.000225                       # Request fanout histogram
system.tol2bus.snoop_fanout::stdev           0.014986                       # Request fanout histogram
system.tol2bus.snoop_fanout::underflows             0      0.00%      0.00% # Request fanout histogram
system.tol2bus.snoop_fanout::0                 725474     99.98%     99.98% # Request fanout histogram
system.tol2bus.snoop_fanout::1                    163      0.02%    100.00% # Request fanout histogram
system.tol2bus.snoop_fanout::2                      0      0.00%    100.00% # Request fanout histogram
system.tol2bus.snoop_fanout::3                      0      0.00%    100.00% # Request fanout histogram
system.tol2bus.snoop_fanout::4                      0      0.00%    100.00% # Request fanout histogram
system.tol2bus.snoop_fanout::overflows              0      0.00%    100.00% # Request fanout histogram
system.tol2bus.snoop_fanout::min_value              0                       # Request fanout histogram
system.tol2bus.snoop_fanout::max_value              1                       # Request fanout histogram
system.tol2bus.snoop_fanout::total             725637                       # Request fanout histogram
system.tol2bus.power_state.pwrStateResidencyTicks::UNDEFINED  36900603000                       # Cumulative time (in ticks) in various power states
system.tol2bus.reqLayer0.occupancy          732036500                       # Layer occupancy (ticks)
system.tol2bus.reqLayer0.utilization              2.0                       # Layer utilization (%)
system.tol2bus.respLayer0.occupancy            882000                       # Layer occupancy (ticks)
system.tol2bus.respLayer0.utilization             0.0                       # Layer utilization (%)
system.tol2bus.respLayer1.occupancy         550140000                       # Layer occupancy (ticks)
system.tol2bus.respLayer1.utilization             1.5                       # Layer utilization (%)
system.voltage_domain.voltage                       1                       # Voltage in Volts

---------- End Simulation Statistics   ----------
