
---------- Begin Simulation Statistics ----------
final_tick                                36434774500                       # Number of ticks from beginning of simulation (restored from checkpoints and never reset)
host_inst_rate                                  66076                       # Simulator instruction rate (inst/s)
host_mem_usage                                8829108                       # Number of bytes of host memory used
host_op_rate                                   104687                       # Simulator op (including micro ops) rate (op/s)
host_seconds                                   166.48                       # Real time elapsed on the host
host_tick_rate                              212651547                       # Simulator tick rate (ticks/s)
sim_freq                                 1000000000000                       # Frequency of simulated ticks
sim_insts                                    11000002                       # Number of instructions simulated
sim_ops                                      17427911                       # Number of ops (including micro ops) simulated
sim_seconds                                  0.035401                       # Number of seconds simulated
sim_ticks                                 35401441500                       # Number of ticks simulated
system.cpu.committedInsts                           0                       # Number of instructions committed
system.cpu.committedOps                             0                       # Number of ops (including micro ops) committed
system.cpu.idle_fraction                            0                       # Percentage of idle cycles
system.cpu.not_idle_fraction                        1                       # Percentage of non-idle cycles
system.cpu.numCycles                                0                       # number of cpu cycles simulated
system.cpu.numWorkItemsCompleted                    0                       # number of work items this cpu completed
system.cpu.numWorkItemsStarted                      0                       # number of work items this cpu started
system.cpu.num_busy_cycles                          0                       # Number of busy cycles
system.cpu.num_conditional_control_insts            0                       # number of instructions that are conditional controls
system.cpu.num_fp_alu_accesses                      0                       # Number of float alu accesses
system.cpu.num_fp_insts                             0                       # number of float instructions
system.cpu.num_fp_register_reads                    0                       # number of times the floating registers were read
system.cpu.num_fp_register_writes                   0                       # number of times the floating registers were written
system.cpu.num_func_calls                           0                       # number of times a function call or return occured
system.cpu.num_idle_cycles                          0                       # Number of idle cycles
system.cpu.num_int_alu_accesses                     0                       # Number of integer alu accesses
system.cpu.num_int_insts                            0                       # number of integer instructions
system.cpu.num_int_register_reads                   0                       # number of times the integer registers were read
system.cpu.num_int_register_writes                  0                       # number of times the integer registers were written
system.cpu.num_load_insts                           0                       # Number of load instructions
system.cpu.num_mem_refs                             0                       # number of memory refs
system.cpu.num_store_insts                          0                       # Number of store instructions
system.cpu.num_vec_alu_accesses                     0                       # Number of vector alu accesses
system.cpu.num_vec_insts                            0                       # number of vector instructions
system.cpu.num_vec_register_reads                   0                       # number of times the vector registers were read
system.cpu.num_vec_register_writes                  0                       # number of times the vector registers were written
system.cpu.op_class::No_OpClass                     0                       # Class of executed instruction
system.cpu.op_class::IntAlu                         0                       # Class of executed instruction
system.cpu.op_class::IntMult                        0                       # Class of executed instruction
system.cpu.op_class::IntDiv                         0                       # Class of executed instruction
system.cpu.op_class::FloatAdd                       0                       # Class of executed instruction
system.cpu.op_class::FloatCmp                       0                       # Class of executed instruction
system.cpu.op_class::FloatCvt                       0                       # Class of executed instruction
system.cpu.op_class::FloatMult                      0                       # Class of executed instruction
system.cpu.op_class::FloatMultAcc                   0                       # Class of executed instruction
system.cpu.op_class::FloatDiv                       0                       # Class of executed instruction
system.cpu.op_class::FloatMisc                      0                       # Class of executed instruction
system.cpu.op_class::FloatSqrt                      0                       # Class of executed instruction
system.cpu.op_class::SimdAdd                        0                       # Class of executed instruction
system.cpu.op_class::SimdAddAcc                     0                       # Class of executed instruction
system.cpu.op_class::SimdAlu                        0                       # Class of executed instruction
system.cpu.op_class::SimdCmp                        0                       # Class of executed instruction
system.cpu.op_class::SimdCvt                        0                       # Class of executed instruction
system.cpu.op_class::SimdMisc                       0                       # Class of executed instruction
system.cpu.op_class::SimdMult                       0                       # Class of executed instruction
system.cpu.op_class::SimdMultAcc                    0                       # Class of executed instruction
system.cpu.op_class::SimdShift                      0                       # Class of executed instruction
system.cpu.op_class::SimdShiftAcc                   0                       # Class of executed instruction
system.cpu.op_class::SimdDiv                        0                       # Class of executed instruction
system.cpu.op_class::SimdSqrt                       0                       # Class of executed instruction
system.cpu.op_class::SimdFloatAdd                   0                       # Class of executed instruction
system.cpu.op_class::SimdFloatAlu                   0                       # Class of executed instruction
system.cpu.op_class::SimdFloatCmp                   0                       # Class of executed instruction
system.cpu.op_class::SimdFloatCvt                   0                       # Class of executed instruction
system.cpu.op_class::SimdFloatDiv                   0                       # Class of executed instruction
system.cpu.op_class::SimdFloatMisc                  0                       # Class of executed instruction
system.cpu.op_class::SimdFloatMult                  0                       # Class of executed instruction
system.cpu.op_class::SimdFloatMultAcc               0                       # Class of executed instruction
system.cpu.op_class::SimdFloatSqrt                  0                       # Class of executed instruction
system.cpu.op_class::SimdReduceAdd                  0                       # Class of executed instruction
system.cpu.op_class::SimdReduceAlu                  0                       # Class of executed instruction
system.cpu.op_class::SimdReduceCmp                  0                       # Class of executed instruction
system.cpu.op_class::SimdFloatReduceAdd             0                       # Class of executed instruction
system.cpu.op_class::SimdFloatReduceCmp             0                       # Class of executed instruction
system.cpu.op_class::SimdAes                        0                       # Class of executed instruction
system.cpu.op_class::SimdAesMix                     0                       # Class of executed instruction
system.cpu.op_class::SimdSha1Hash                   0                       # Class of executed instruction
system.cpu.op_class::SimdSha1Hash2                  0                       # Class of executed instruction
system.cpu.op_class::SimdSha256Hash                 0                       # Class of executed instruction
system.cpu.op_class::SimdSha256Hash2                0                       # Class of executed instruction
system.cpu.op_class::SimdShaSigma2                  0                       # Class of executed instruction
system.cpu.op_class::SimdShaSigma3                  0                       # Class of executed instruction
system.cpu.op_class::SimdPredAlu                    0                       # Class of executed instruction
system.cpu.op_class::MemRead                        0                       # Class of executed instruction
system.cpu.op_class::MemWrite                       0                       # Class of executed instruction
system.cpu.op_class::FloatMemRead                   0                       # Class of executed instruction
system.cpu.op_class::FloatMemWrite                  0                       # Class of executed instruction
system.cpu.op_class::IprAccess                      0                       # Class of executed instruction
system.cpu.op_class::InstPrefetch                   0                       # Class of executed instruction
system.cpu.op_class::total                          0                       # Class of executed instruction
system.cpu.workload.numSyscalls                     7                       # Number of system calls
system.membus.snoop_filter.hit_multi_requests            0                       # Number of requests hitting in the snoop filter with multiple (>1) holders of the requested data.
system.membus.snoop_filter.hit_multi_snoops            0                       # Number of snoops hitting in the snoop filter with multiple (>1) holders of the requested data.
system.membus.snoop_filter.hit_single_requests       358125                       # Number of requests hitting in the snoop filter with a single holder of the requested data.
system.membus.snoop_filter.hit_single_snoops            0                       # Number of snoops hitting in the snoop filter with a single holder of the requested data.
system.membus.snoop_filter.tot_requests        720369                       # Total number of requests made to the snoop filter.
system.membus.snoop_filter.tot_snoops               0                       # Total number of snoops made to the snoop filter.
system.switch_cpus.cc_regfile_reads          18550518                       # number of cc regfile reads
system.switch_cpus.cc_regfile_writes         18434260                       # number of cc regfile writes
system.switch_cpus.committedInsts            10000001                       # Number of Instructions Simulated
system.switch_cpus.committedOps              15621644                       # Number of Ops (including micro ops) Simulated
system.switch_cpus.cpi                       7.080288                       # CPI: Cycles Per Instruction
system.switch_cpus.cpi_total                 7.080288                       # CPI: Total CPI of All Threads
system.switch_cpus.fp_regfile_reads            405034                       # number of floating regfile reads
system.switch_cpus.fp_regfile_writes           405661                       # number of floating regfile writes
system.switch_cpus.idleCycles                   38244                       # Total number of cycles that the CPU has spent unscheduled due to idling
system.switch_cpus.iew.branchMispredicts       176300                       # Number of branch mispredicts detected at execute
system.switch_cpus.iew.exec_branches          3625726                       # Number of branches executed
system.switch_cpus.iew.exec_nop                     0                       # number of nop insts executed
system.switch_cpus.iew.exec_rate             0.547246                       # Inst execution rate
system.switch_cpus.iew.exec_refs              8028480                       # number of memory reference insts executed
system.switch_cpus.iew.exec_stores            3655486                       # Number of stores executed
system.switch_cpus.iew.exec_swp                     0                       # number of swp insts executed
system.switch_cpus.iew.iewBlockCycles         3290966                       # Number of cycles IEW is blocking
system.switch_cpus.iew.iewDispLoadInsts       4685654                       # Number of dispatched load instructions
system.switch_cpus.iew.iewDispNonSpecInsts           45                       # Number of dispatched non-speculative instructions
system.switch_cpus.iew.iewDispSquashedInsts        59009                       # Number of squashed instructions skipped by dispatch
system.switch_cpus.iew.iewDispStoreInsts      3992594                       # Number of dispatched store instructions
system.switch_cpus.iew.iewDispatchedInsts     42998420                       # Number of instructions dispatched to IQ
system.switch_cpus.iew.iewExecLoadInsts       4372994                       # Number of load instructions executed
system.switch_cpus.iew.iewExecSquashedInsts       314199                       # Number of squashed instructions skipped in execute
system.switch_cpus.iew.iewExecutedInsts      38746595                       # Number of executed instructions
system.switch_cpus.iew.iewIQFullEvents           1966                       # Number of times the IQ has become full, causing a stall
system.switch_cpus.iew.iewIdleCycles                0                       # Number of cycles IEW is idle
system.switch_cpus.iew.iewLSQFullEvents         30069                       # Number of times the LSQ has become full, causing a stall
system.switch_cpus.iew.iewSquashCycles         265631                       # Number of cycles IEW is squashing
system.switch_cpus.iew.iewUnblockCycles         31467                       # Number of cycles IEW is unblocking
system.switch_cpus.iew.memOrderViolationEvents         1082                       # Number of memory order violations
system.switch_cpus.iew.predictedNotTakenIncorrect        65260                       # Number of branches that were predicted not taken incorrectly
system.switch_cpus.iew.predictedTakenIncorrect       111040                       # Number of branches that were predicted taken incorrectly
system.switch_cpus.iew.wb_consumers          46465125                       # num instructions consuming a value
system.switch_cpus.iew.wb_count              36473216                       # cumulative count of insts written-back
system.switch_cpus.iew.wb_fanout             0.630597                       # average fanout of values written-back
system.switch_cpus.iew.wb_producers          29300776                       # num instructions producing a value
system.switch_cpus.iew.wb_rate               0.515137                       # insts written-back per cycle
system.switch_cpus.iew.wb_sent               38675858                       # cumulative count of insts sent to commit
system.switch_cpus.int_regfile_reads         56217128                       # number of integer regfile reads
system.switch_cpus.int_regfile_writes        31023934                       # number of integer regfile writes
system.switch_cpus.ipc                       0.141237                       # IPC: Instructions Per Cycle
system.switch_cpus.ipc_total                 0.141237                       # IPC: Total IPC of All Threads
system.switch_cpus.iq.FU_type_0::No_OpClass       224288      0.57%      0.57% # Type of FU issued
system.switch_cpus.iq.FU_type_0::IntAlu      30447442     77.95%     78.52% # Type of FU issued
system.switch_cpus.iq.FU_type_0::IntMult       258625      0.66%     79.19% # Type of FU issued
system.switch_cpus.iq.FU_type_0::IntDiv             7      0.00%     79.19% # Type of FU issued
system.switch_cpus.iq.FU_type_0::FloatAdd          244      0.00%     79.19% # Type of FU issued
system.switch_cpus.iq.FU_type_0::FloatCmp            0      0.00%     79.19% # Type of FU issued
system.switch_cpus.iq.FU_type_0::FloatCvt            0      0.00%     79.19% # Type of FU issued
system.switch_cpus.iq.FU_type_0::FloatMult            0      0.00%     79.19% # Type of FU issued
system.switch_cpus.iq.FU_type_0::FloatMultAcc            0      0.00%     79.19% # Type of FU issued
system.switch_cpus.iq.FU_type_0::FloatDiv            0      0.00%     79.19% # Type of FU issued
system.switch_cpus.iq.FU_type_0::FloatMisc            0      0.00%     79.19% # Type of FU issued
system.switch_cpus.iq.FU_type_0::FloatSqrt            0      0.00%     79.19% # Type of FU issued
system.switch_cpus.iq.FU_type_0::SimdAdd            0      0.00%     79.19% # Type of FU issued
system.switch_cpus.iq.FU_type_0::SimdAddAcc            0      0.00%     79.19% # Type of FU issued
system.switch_cpus.iq.FU_type_0::SimdAlu          126      0.00%     79.19% # Type of FU issued
system.switch_cpus.iq.FU_type_0::SimdCmp            0      0.00%     79.19% # Type of FU issued
system.switch_cpus.iq.FU_type_0::SimdCvt           16      0.00%     79.19% # Type of FU issued
system.switch_cpus.iq.FU_type_0::SimdMisc          266      0.00%     79.19% # Type of FU issued
system.switch_cpus.iq.FU_type_0::SimdMult            0      0.00%     79.19% # Type of FU issued
system.switch_cpus.iq.FU_type_0::SimdMultAcc            0      0.00%     79.19% # Type of FU issued
system.switch_cpus.iq.FU_type_0::SimdShift            0      0.00%     79.19% # Type of FU issued
system.switch_cpus.iq.FU_type_0::SimdShiftAcc            0      0.00%     79.19% # Type of FU issued
system.switch_cpus.iq.FU_type_0::SimdDiv            0      0.00%     79.19% # Type of FU issued
system.switch_cpus.iq.FU_type_0::SimdSqrt            0      0.00%     79.19% # Type of FU issued
system.switch_cpus.iq.FU_type_0::SimdFloatAdd            0      0.00%     79.19% # Type of FU issued
system.switch_cpus.iq.FU_type_0::SimdFloatAlu            0      0.00%     79.19% # Type of FU issued
system.switch_cpus.iq.FU_type_0::SimdFloatCmp            0      0.00%     79.19% # Type of FU issued
system.switch_cpus.iq.FU_type_0::SimdFloatCvt            0      0.00%     79.19% # Type of FU issued
system.switch_cpus.iq.FU_type_0::SimdFloatDiv            0      0.00%     79.19% # Type of FU issued
system.switch_cpus.iq.FU_type_0::SimdFloatMisc            0      0.00%     79.19% # Type of FU issued
system.switch_cpus.iq.FU_type_0::SimdFloatMult            0      0.00%     79.19% # Type of FU issued
system.switch_cpus.iq.FU_type_0::SimdFloatMultAcc            0      0.00%     79.19% # Type of FU issued
system.switch_cpus.iq.FU_type_0::SimdFloatSqrt            0      0.00%     79.19% # Type of FU issued
system.switch_cpus.iq.FU_type_0::SimdReduceAdd            0      0.00%     79.19% # Type of FU issued
system.switch_cpus.iq.FU_type_0::SimdReduceAlu            0      0.00%     79.19% # Type of FU issued
system.switch_cpus.iq.FU_type_0::SimdReduceCmp            0      0.00%     79.19% # Type of FU issued
system.switch_cpus.iq.FU_type_0::SimdFloatReduceAdd            0      0.00%     79.19% # Type of FU issued
system.switch_cpus.iq.FU_type_0::SimdFloatReduceCmp            0      0.00%     79.19% # Type of FU issued
system.switch_cpus.iq.FU_type_0::SimdAes            0      0.00%     79.19% # Type of FU issued
system.switch_cpus.iq.FU_type_0::SimdAesMix            0      0.00%     79.19% # Type of FU issued
system.switch_cpus.iq.FU_type_0::SimdSha1Hash            0      0.00%     79.19% # Type of FU issued
system.switch_cpus.iq.FU_type_0::SimdSha1Hash2            0      0.00%     79.19% # Type of FU issued
system.switch_cpus.iq.FU_type_0::SimdSha256Hash            0      0.00%     79.19% # Type of FU issued
system.switch_cpus.iq.FU_type_0::SimdSha256Hash2            0      0.00%     79.19% # Type of FU issued
system.switch_cpus.iq.FU_type_0::SimdShaSigma2            0      0.00%     79.19% # Type of FU issued
system.switch_cpus.iq.FU_type_0::SimdShaSigma3            0      0.00%     79.19% # Type of FU issued
system.switch_cpus.iq.FU_type_0::SimdPredAlu            0      0.00%     79.19% # Type of FU issued
system.switch_cpus.iq.FU_type_0::MemRead      4009015     10.26%     89.45% # Type of FU issued
system.switch_cpus.iq.FU_type_0::MemWrite      3303590      8.46%     97.91% # Type of FU issued
system.switch_cpus.iq.FU_type_0::FloatMemRead       411589      1.05%     98.96% # Type of FU issued
system.switch_cpus.iq.FU_type_0::FloatMemWrite       405590      1.04%    100.00% # Type of FU issued
system.switch_cpus.iq.FU_type_0::IprAccess            0      0.00%    100.00% # Type of FU issued
system.switch_cpus.iq.FU_type_0::InstPrefetch            0      0.00%    100.00% # Type of FU issued
system.switch_cpus.iq.FU_type_0::total       39060798                       # Type of FU issued
system.switch_cpus.iq.fp_alu_accesses          960355                       # Number of floating point alu accesses
system.switch_cpus.iq.fp_inst_queue_reads      1778766                       # Number of floating instruction queue reads
system.switch_cpus.iq.fp_inst_queue_wakeup_accesses       806604                       # Number of floating instruction queue wakeup accesses
system.switch_cpus.iq.fp_inst_queue_writes      1581928                       # Number of floating instruction queue writes
system.switch_cpus.iq.fu_busy_cnt              423438                       # FU busy when requested
system.switch_cpus.iq.fu_busy_rate           0.010840                       # FU busy rate (busy events/executed inst)
system.switch_cpus.iq.fu_full::No_OpClass            0      0.00%      0.00% # attempts to use FU when none available
system.switch_cpus.iq.fu_full::IntAlu          198489     46.88%     46.88% # attempts to use FU when none available
system.switch_cpus.iq.fu_full::IntMult              0      0.00%     46.88% # attempts to use FU when none available
system.switch_cpus.iq.fu_full::IntDiv               0      0.00%     46.88% # attempts to use FU when none available
system.switch_cpus.iq.fu_full::FloatAdd             0      0.00%     46.88% # attempts to use FU when none available
system.switch_cpus.iq.fu_full::FloatCmp             0      0.00%     46.88% # attempts to use FU when none available
system.switch_cpus.iq.fu_full::FloatCvt             0      0.00%     46.88% # attempts to use FU when none available
system.switch_cpus.iq.fu_full::FloatMult            0      0.00%     46.88% # attempts to use FU when none available
system.switch_cpus.iq.fu_full::FloatMultAcc            0      0.00%     46.88% # attempts to use FU when none available
system.switch_cpus.iq.fu_full::FloatDiv             0      0.00%     46.88% # attempts to use FU when none available
system.switch_cpus.iq.fu_full::FloatMisc            0      0.00%     46.88% # attempts to use FU when none available
system.switch_cpus.iq.fu_full::FloatSqrt            0      0.00%     46.88% # attempts to use FU when none available
system.switch_cpus.iq.fu_full::SimdAdd              0      0.00%     46.88% # attempts to use FU when none available
system.switch_cpus.iq.fu_full::SimdAddAcc            0      0.00%     46.88% # attempts to use FU when none available
system.switch_cpus.iq.fu_full::SimdAlu              1      0.00%     46.88% # attempts to use FU when none available
system.switch_cpus.iq.fu_full::SimdCmp              0      0.00%     46.88% # attempts to use FU when none available
system.switch_cpus.iq.fu_full::SimdCvt              0      0.00%     46.88% # attempts to use FU when none available
system.switch_cpus.iq.fu_full::SimdMisc             0      0.00%     46.88% # attempts to use FU when none available
system.switch_cpus.iq.fu_full::SimdMult             0      0.00%     46.88% # attempts to use FU when none available
system.switch_cpus.iq.fu_full::SimdMultAcc            0      0.00%     46.88% # attempts to use FU when none available
system.switch_cpus.iq.fu_full::SimdShift            0      0.00%     46.88% # attempts to use FU when none available
system.switch_cpus.iq.fu_full::SimdShiftAcc            0      0.00%     46.88% # attempts to use FU when none available
system.switch_cpus.iq.fu_full::SimdDiv              0      0.00%     46.88% # attempts to use FU when none available
system.switch_cpus.iq.fu_full::SimdSqrt             0      0.00%     46.88% # attempts to use FU when none available
system.switch_cpus.iq.fu_full::SimdFloatAdd            0      0.00%     46.88% # attempts to use FU when none available
system.switch_cpus.iq.fu_full::SimdFloatAlu            0      0.00%     46.88% # attempts to use FU when none available
system.switch_cpus.iq.fu_full::SimdFloatCmp            0      0.00%     46.88% # attempts to use FU when none available
system.switch_cpus.iq.fu_full::SimdFloatCvt            0      0.00%     46.88% # attempts to use FU when none available
system.switch_cpus.iq.fu_full::SimdFloatDiv            0      0.00%     46.88% # attempts to use FU when none available
system.switch_cpus.iq.fu_full::SimdFloatMisc            0      0.00%     46.88% # attempts to use FU when none available
system.switch_cpus.iq.fu_full::SimdFloatMult            0      0.00%     46.88% # attempts to use FU when none available
system.switch_cpus.iq.fu_full::SimdFloatMultAcc            0      0.00%     46.88% # attempts to use FU when none available
system.switch_cpus.iq.fu_full::SimdFloatSqrt            0      0.00%     46.88% # attempts to use FU when none available
system.switch_cpus.iq.fu_full::SimdReduceAdd            0      0.00%     46.88% # attempts to use FU when none available
system.switch_cpus.iq.fu_full::SimdReduceAlu            0      0.00%     46.88% # attempts to use FU when none available
system.switch_cpus.iq.fu_full::SimdReduceCmp            0      0.00%     46.88% # attempts to use FU when none available
system.switch_cpus.iq.fu_full::SimdFloatReduceAdd            0      0.00%     46.88% # attempts to use FU when none available
system.switch_cpus.iq.fu_full::SimdFloatReduceCmp            0      0.00%     46.88% # attempts to use FU when none available
system.switch_cpus.iq.fu_full::SimdAes              0      0.00%     46.88% # attempts to use FU when none available
system.switch_cpus.iq.fu_full::SimdAesMix            0      0.00%     46.88% # attempts to use FU when none available
system.switch_cpus.iq.fu_full::SimdSha1Hash            0      0.00%     46.88% # attempts to use FU when none available
system.switch_cpus.iq.fu_full::SimdSha1Hash2            0      0.00%     46.88% # attempts to use FU when none available
system.switch_cpus.iq.fu_full::SimdSha256Hash            0      0.00%     46.88% # attempts to use FU when none available
system.switch_cpus.iq.fu_full::SimdSha256Hash2            0      0.00%     46.88% # attempts to use FU when none available
system.switch_cpus.iq.fu_full::SimdShaSigma2            0      0.00%     46.88% # attempts to use FU when none available
system.switch_cpus.iq.fu_full::SimdShaSigma3            0      0.00%     46.88% # attempts to use FU when none available
system.switch_cpus.iq.fu_full::SimdPredAlu            0      0.00%     46.88% # attempts to use FU when none available
system.switch_cpus.iq.fu_full::MemRead          14453      3.41%     50.29% # attempts to use FU when none available
system.switch_cpus.iq.fu_full::MemWrite         68050     16.07%     66.36% # attempts to use FU when none available
system.switch_cpus.iq.fu_full::FloatMemRead       118070     27.88%     94.24% # attempts to use FU when none available
system.switch_cpus.iq.fu_full::FloatMemWrite        24375      5.76%    100.00% # attempts to use FU when none available
system.switch_cpus.iq.fu_full::IprAccess            0      0.00%    100.00% # attempts to use FU when none available
system.switch_cpus.iq.fu_full::InstPrefetch            0      0.00%    100.00% # attempts to use FU when none available
system.switch_cpus.iq.int_alu_accesses       38299593                       # Number of integer alu accesses
system.switch_cpus.iq.int_inst_queue_reads    147537571                       # Number of integer instruction queue reads
system.switch_cpus.iq.int_inst_queue_wakeup_accesses     35666612                       # Number of integer instruction queue wakeup accesses
system.switch_cpus.iq.int_inst_queue_writes     68794297                       # Number of integer instruction queue writes
system.switch_cpus.iq.iqInstsAdded           42997481                       # Number of instructions added to the IQ (excludes non-spec)
system.switch_cpus.iq.iqInstsIssued          39060798                       # Number of instructions issued
system.switch_cpus.iq.iqNonSpecInstsAdded          939                       # Number of non-speculative instructions added to the IQ
system.switch_cpus.iq.iqSquashedInstsExamined     27376754                       # Number of squashed instructions iterated over during squash; mainly for profiling
system.switch_cpus.iq.iqSquashedInstsIssued         6668                       # Number of squashed instructions issued
system.switch_cpus.iq.iqSquashedNonSpecRemoved          814                       # Number of squashed non-spec instructions that were removed
system.switch_cpus.iq.iqSquashedOperandsExamined     21002520                       # Number of squashed operands that are examined and possibly removed from graph
system.switch_cpus.iq.issued_per_cycle::samples     70764639                       # Number of insts issued each cycle
system.switch_cpus.iq.issued_per_cycle::mean     0.551982                       # Number of insts issued each cycle
system.switch_cpus.iq.issued_per_cycle::stdev     1.573023                       # Number of insts issued each cycle
system.switch_cpus.iq.issued_per_cycle::underflows            0      0.00%      0.00% # Number of insts issued each cycle
system.switch_cpus.iq.issued_per_cycle::0     61110374     86.36%     86.36% # Number of insts issued each cycle
system.switch_cpus.iq.issued_per_cycle::1      1108049      1.57%     87.92% # Number of insts issued each cycle
system.switch_cpus.iq.issued_per_cycle::2      1096085      1.55%     89.47% # Number of insts issued each cycle
system.switch_cpus.iq.issued_per_cycle::3      2497681      3.53%     93.00% # Number of insts issued each cycle
system.switch_cpus.iq.issued_per_cycle::4      1035731      1.46%     94.47% # Number of insts issued each cycle
system.switch_cpus.iq.issued_per_cycle::5       939509      1.33%     95.79% # Number of insts issued each cycle
system.switch_cpus.iq.issued_per_cycle::6      1973914      2.79%     98.58% # Number of insts issued each cycle
system.switch_cpus.iq.issued_per_cycle::7       442785      0.63%     99.21% # Number of insts issued each cycle
system.switch_cpus.iq.issued_per_cycle::8       560511      0.79%    100.00% # Number of insts issued each cycle
system.switch_cpus.iq.issued_per_cycle::overflows            0      0.00%    100.00% # Number of insts issued each cycle
system.switch_cpus.iq.issued_per_cycle::min_value            0                       # Number of insts issued each cycle
system.switch_cpus.iq.issued_per_cycle::max_value            8                       # Number of insts issued each cycle
system.switch_cpus.iq.issued_per_cycle::total     70764639                       # Number of insts issued each cycle
system.switch_cpus.iq.rate                   0.551684                       # Inst issue rate
system.switch_cpus.iq.vec_alu_accesses              0                       # Number of vector alu accesses
system.switch_cpus.iq.vec_inst_queue_reads            0                       # Number of vector instruction queue reads
system.switch_cpus.iq.vec_inst_queue_wakeup_accesses            0                       # Number of vector instruction queue wakeup accesses
system.switch_cpus.iq.vec_inst_queue_writes            0                       # Number of vector instruction queue writes
system.switch_cpus.memDep0.conflictingLoads       394158                       # Number of conflicting loads.
system.switch_cpus.memDep0.conflictingStores        76697                       # Number of conflicting stores.
system.switch_cpus.memDep0.insertedLoads      4685654                       # Number of loads inserted to the mem dependence unit.
system.switch_cpus.memDep0.insertedStores      3992594                       # Number of stores inserted to the mem dependence unit.
system.switch_cpus.misc_regfile_reads        15638312                       # number of misc regfile reads
system.switch_cpus.numCycles                 70802883                       # number of cpu cycles simulated
system.switch_cpus.numWorkItemsCompleted            0                       # number of work items this cpu completed
system.switch_cpus.numWorkItemsStarted              0                       # number of work items this cpu started
system.switch_cpus.timesIdled                     308                       # Number of times that the entire CPU went into an idle state and unscheduled itself
system.tol2bus.snoop_filter.hit_multi_requests            3                       # Number of requests hitting in the snoop filter with multiple (>1) holders of the requested data.
system.tol2bus.snoop_filter.hit_multi_snoops            0                       # Number of snoops hitting in the snoop filter with multiple (>1) holders of the requested data.
system.tol2bus.snoop_filter.hit_single_requests       367153                       # Number of requests hitting in the snoop filter with a single holder of the requested data.
system.tol2bus.snoop_filter.hit_single_snoops          164                       # Number of snoops hitting in the snoop filter with a single holder of the requested data.
system.tol2bus.snoop_filter.tot_requests       734468                       # Total number of requests made to the snoop filter.
system.tol2bus.snoop_filter.tot_snoops            164                       # Total number of snoops made to the snoop filter.
system.clk_domain.clock                          1000                       # Clock period in ticks
system.cpu.branchPred.lookups                       0                       # Number of BP lookups
system.cpu.branchPred.condPredicted                 0                       # Number of conditional branches predicted
system.cpu.branchPred.condIncorrect                 0                       # Number of conditional branches incorrect
system.cpu.branchPred.BTBLookups                    0                       # Number of BTB lookups
system.cpu.branchPred.BTBHits                       0                       # Number of BTB hits
system.cpu.branchPred.BTBHitPct                   nan                       # BTB Hit Percentage
system.cpu.branchPred.RASUsed                       0                       # Number of times the RAS was used to get a target.
system.cpu.branchPred.RASIncorrect                  0                       # Number of incorrect RAS predictions.
system.cpu.branchPred.indirectLookups               0                       # Number of indirect predictor lookups.
system.cpu.branchPred.indirectHits                  0                       # Number of indirect target hits.
system.cpu.branchPred.indirectMisses                0                       # Number of indirect misses.
system.cpu.branchPred.indirectMispredicted            0                       # Number of mispredicted indirect branches.
system.cpu.dcache.demand_hits::.switch_cpus.data      4642886                       # number of demand (read+write) hits
system.cpu.dcache.demand_hits::total          4642886                       # number of demand (read+write) hits
system.cpu.dcache.overall_hits::.switch_cpus.data      4739854                       # number of overall hits
system.cpu.dcache.overall_hits::total         4739854                       # number of overall hits
system.cpu.dcache.demand_misses::.switch_cpus.data       371133                       # number of demand (read+write) misses
system.cpu.dcache.demand_misses::total         371133                       # number of demand (read+write) misses
system.cpu.dcache.overall_misses::.switch_cpus.data       373525                       # number of overall misses
system.cpu.dcache.overall_misses::total        373525                       # number of overall misses
system.cpu.dcache.demand_miss_latency::.switch_cpus.data  29464821497                       # number of demand (read+write) miss cycles
system.cpu.dcache.demand_miss_latency::total  29464821497                       # number of demand (read+write) miss cycles
system.cpu.dcache.overall_miss_latency::.switch_cpus.data  29464821497                       # number of overall miss cycles
system.cpu.dcache.overall_miss_latency::total  29464821497                       # number of overall miss cycles
system.cpu.dcache.demand_accesses::.switch_cpus.data      5014019                       # number of demand (read+write) accesses
system.cpu.dcache.demand_accesses::total      5014019                       # number of demand (read+write) accesses
system.cpu.dcache.overall_accesses::.switch_cpus.data      5113379                       # number of overall (read+write) accesses
system.cpu.dcache.overall_accesses::total      5113379                       # number of overall (read+write) accesses
system.cpu.dcache.demand_miss_rate::.switch_cpus.data     0.074019                       # miss rate for demand accesses
system.cpu.dcache.demand_miss_rate::total     0.074019                       # miss rate for demand accesses
system.cpu.dcache.overall_miss_rate::.switch_cpus.data     0.073049                       # miss rate for overall accesses
system.cpu.dcache.overall_miss_rate::total     0.073049                       # miss rate for overall accesses
system.cpu.dcache.demand_avg_miss_latency::.switch_cpus.data 79391.542916                       # average overall miss latency
system.cpu.dcache.demand_avg_miss_latency::total 79391.542916                       # average overall miss latency
system.cpu.dcache.overall_avg_miss_latency::.switch_cpus.data 78883.130974                       # average overall miss latency
system.cpu.dcache.overall_avg_miss_latency::total 78883.130974                       # average overall miss latency
system.cpu.dcache.blocked_cycles::no_mshrs          674                       # number of cycles access was blocked
system.cpu.dcache.blocked_cycles::no_targets          523                       # number of cycles access was blocked
system.cpu.dcache.blocked::no_mshrs                23                       # number of cycles access was blocked
system.cpu.dcache.blocked::no_targets               8                       # number of cycles access was blocked
system.cpu.dcache.avg_blocked_cycles::no_mshrs    29.304348                       # average number of cycles each access was blocked
system.cpu.dcache.avg_blocked_cycles::no_targets    65.375000                       # average number of cycles each access was blocked
system.cpu.dcache.writebacks::.writebacks       364313                       # number of writebacks
system.cpu.dcache.writebacks::total            364313                       # number of writebacks
system.cpu.dcache.demand_mshr_hits::.switch_cpus.data         5098                       # number of demand (read+write) MSHR hits
system.cpu.dcache.demand_mshr_hits::total         5098                       # number of demand (read+write) MSHR hits
system.cpu.dcache.overall_mshr_hits::.switch_cpus.data         5098                       # number of overall MSHR hits
system.cpu.dcache.overall_mshr_hits::total         5098                       # number of overall MSHR hits
system.cpu.dcache.demand_mshr_misses::.switch_cpus.data       366035                       # number of demand (read+write) MSHR misses
system.cpu.dcache.demand_mshr_misses::total       366035                       # number of demand (read+write) MSHR misses
system.cpu.dcache.overall_mshr_misses::.switch_cpus.data       366723                       # number of overall MSHR misses
system.cpu.dcache.overall_mshr_misses::total       366723                       # number of overall MSHR misses
system.cpu.dcache.demand_mshr_miss_latency::.switch_cpus.data  29007868997                       # number of demand (read+write) MSHR miss cycles
system.cpu.dcache.demand_mshr_miss_latency::total  29007868997                       # number of demand (read+write) MSHR miss cycles
system.cpu.dcache.overall_mshr_miss_latency::.switch_cpus.data  29050151497                       # number of overall MSHR miss cycles
system.cpu.dcache.overall_mshr_miss_latency::total  29050151497                       # number of overall MSHR miss cycles
system.cpu.dcache.demand_mshr_miss_rate::.switch_cpus.data     0.073002                       # mshr miss rate for demand accesses
system.cpu.dcache.demand_mshr_miss_rate::total     0.073002                       # mshr miss rate for demand accesses
system.cpu.dcache.overall_mshr_miss_rate::.switch_cpus.data     0.071718                       # mshr miss rate for overall accesses
system.cpu.dcache.overall_mshr_miss_rate::total     0.071718                       # mshr miss rate for overall accesses
system.cpu.dcache.demand_avg_mshr_miss_latency::.switch_cpus.data 79248.894223                       # average overall mshr miss latency
system.cpu.dcache.demand_avg_mshr_miss_latency::total 79248.894223                       # average overall mshr miss latency
system.cpu.dcache.overall_avg_mshr_miss_latency::.switch_cpus.data 79215.515517                       # average overall mshr miss latency
system.cpu.dcache.overall_avg_mshr_miss_latency::total 79215.515517                       # average overall mshr miss latency
system.cpu.dcache.replacements                 366722                       # number of replacements
system.cpu.dcache.ReadReq_hits::.switch_cpus.data      4001125                       # number of ReadReq hits
system.cpu.dcache.ReadReq_hits::total         4001125                       # number of ReadReq hits
system.cpu.dcache.ReadReq_misses::.switch_cpus.data         9303                       # number of ReadReq misses
system.cpu.dcache.ReadReq_misses::total          9303                       # number of ReadReq misses
system.cpu.dcache.ReadReq_miss_latency::.switch_cpus.data    158496500                       # number of ReadReq miss cycles
system.cpu.dcache.ReadReq_miss_latency::total    158496500                       # number of ReadReq miss cycles
system.cpu.dcache.ReadReq_accesses::.switch_cpus.data      4010428                       # number of ReadReq accesses(hits+misses)
system.cpu.dcache.ReadReq_accesses::total      4010428                       # number of ReadReq accesses(hits+misses)
system.cpu.dcache.ReadReq_miss_rate::.switch_cpus.data     0.002320                       # miss rate for ReadReq accesses
system.cpu.dcache.ReadReq_miss_rate::total     0.002320                       # miss rate for ReadReq accesses
system.cpu.dcache.ReadReq_avg_miss_latency::.switch_cpus.data 17037.138557                       # average ReadReq miss latency
system.cpu.dcache.ReadReq_avg_miss_latency::total 17037.138557                       # average ReadReq miss latency
system.cpu.dcache.ReadReq_mshr_hits::.switch_cpus.data         5095                       # number of ReadReq MSHR hits
system.cpu.dcache.ReadReq_mshr_hits::total         5095                       # number of ReadReq MSHR hits
system.cpu.dcache.ReadReq_mshr_misses::.switch_cpus.data         4208                       # number of ReadReq MSHR misses
system.cpu.dcache.ReadReq_mshr_misses::total         4208                       # number of ReadReq MSHR misses
system.cpu.dcache.ReadReq_mshr_miss_latency::.switch_cpus.data     63550000                       # number of ReadReq MSHR miss cycles
system.cpu.dcache.ReadReq_mshr_miss_latency::total     63550000                       # number of ReadReq MSHR miss cycles
system.cpu.dcache.ReadReq_mshr_miss_rate::.switch_cpus.data     0.001049                       # mshr miss rate for ReadReq accesses
system.cpu.dcache.ReadReq_mshr_miss_rate::total     0.001049                       # mshr miss rate for ReadReq accesses
system.cpu.dcache.ReadReq_avg_mshr_miss_latency::.switch_cpus.data 15102.186312                       # average ReadReq mshr miss latency
system.cpu.dcache.ReadReq_avg_mshr_miss_latency::total 15102.186312                       # average ReadReq mshr miss latency
system.cpu.dcache.WriteReq_hits::.switch_cpus.data       641761                       # number of WriteReq hits
system.cpu.dcache.WriteReq_hits::total         641761                       # number of WriteReq hits
system.cpu.dcache.WriteReq_misses::.switch_cpus.data       361830                       # number of WriteReq misses
system.cpu.dcache.WriteReq_misses::total       361830                       # number of WriteReq misses
system.cpu.dcache.WriteReq_miss_latency::.switch_cpus.data  29306324997                       # number of WriteReq miss cycles
system.cpu.dcache.WriteReq_miss_latency::total  29306324997                       # number of WriteReq miss cycles
system.cpu.dcache.WriteReq_accesses::.switch_cpus.data      1003591                       # number of WriteReq accesses(hits+misses)
system.cpu.dcache.WriteReq_accesses::total      1003591                       # number of WriteReq accesses(hits+misses)
system.cpu.dcache.WriteReq_miss_rate::.switch_cpus.data     0.360535                       # miss rate for WriteReq accesses
system.cpu.dcache.WriteReq_miss_rate::total     0.360535                       # miss rate for WriteReq accesses
system.cpu.dcache.WriteReq_avg_miss_latency::.switch_cpus.data 80994.735088                       # average WriteReq miss latency
system.cpu.dcache.WriteReq_avg_miss_latency::total 80994.735088                       # average WriteReq miss latency
system.cpu.dcache.WriteReq_mshr_hits::.switch_cpus.data            3                       # number of WriteReq MSHR hits
system.cpu.dcache.WriteReq_mshr_hits::total            3                       # number of WriteReq MSHR hits
system.cpu.dcache.WriteReq_mshr_misses::.switch_cpus.data       361827                       # number of WriteReq MSHR misses
system.cpu.dcache.WriteReq_mshr_misses::total       361827                       # number of WriteReq MSHR misses
system.cpu.dcache.WriteReq_mshr_miss_latency::.switch_cpus.data  28944318997                       # number of WriteReq MSHR miss cycles
system.cpu.dcache.WriteReq_mshr_miss_latency::total  28944318997                       # number of WriteReq MSHR miss cycles
system.cpu.dcache.WriteReq_mshr_miss_rate::.switch_cpus.data     0.360532                       # mshr miss rate for WriteReq accesses
system.cpu.dcache.WriteReq_mshr_miss_rate::total     0.360532                       # mshr miss rate for WriteReq accesses
system.cpu.dcache.WriteReq_avg_mshr_miss_latency::.switch_cpus.data 79994.911925                       # average WriteReq mshr miss latency
system.cpu.dcache.WriteReq_avg_mshr_miss_latency::total 79994.911925                       # average WriteReq mshr miss latency
system.cpu.dcache.SoftPFReq_hits::.switch_cpus.data        96968                       # number of SoftPFReq hits
system.cpu.dcache.SoftPFReq_hits::total         96968                       # number of SoftPFReq hits
system.cpu.dcache.SoftPFReq_misses::.switch_cpus.data         2392                       # number of SoftPFReq misses
system.cpu.dcache.SoftPFReq_misses::total         2392                       # number of SoftPFReq misses
system.cpu.dcache.SoftPFReq_accesses::.switch_cpus.data        99360                       # number of SoftPFReq accesses(hits+misses)
system.cpu.dcache.SoftPFReq_accesses::total        99360                       # number of SoftPFReq accesses(hits+misses)
system.cpu.dcache.SoftPFReq_miss_rate::.switch_cpus.data     0.024074                       # miss rate for SoftPFReq accesses
system.cpu.dcache.SoftPFReq_miss_rate::total     0.024074                       # miss rate for SoftPFReq accesses
system.cpu.dcache.SoftPFReq_mshr_misses::.switch_cpus.data          688                       # number of SoftPFReq MSHR misses
system.cpu.dcache.SoftPFReq_mshr_misses::total          688                       # number of SoftPFReq MSHR misses
system.cpu.dcache.SoftPFReq_mshr_miss_latency::.switch_cpus.data     42282500                       # number of SoftPFReq MSHR miss cycles
system.cpu.dcache.SoftPFReq_mshr_miss_latency::total     42282500                       # number of SoftPFReq MSHR miss cycles
system.cpu.dcache.SoftPFReq_mshr_miss_rate::.switch_cpus.data     0.006924                       # mshr miss rate for SoftPFReq accesses
system.cpu.dcache.SoftPFReq_mshr_miss_rate::total     0.006924                       # mshr miss rate for SoftPFReq accesses
system.cpu.dcache.SoftPFReq_avg_mshr_miss_latency::.switch_cpus.data 61457.122093                       # average SoftPFReq mshr miss latency
system.cpu.dcache.SoftPFReq_avg_mshr_miss_latency::total 61457.122093                       # average SoftPFReq mshr miss latency
system.cpu.dcache.power_state.pwrStateResidencyTicks::UNDEFINED  36434774500                       # Cumulative time (in ticks) in various power states
system.cpu.dcache.tags.tagsinuse          1023.117295                       # Cycle average of tags in use
system.cpu.dcache.tags.total_refs             5284283                       # Total number of references to valid blocks.
system.cpu.dcache.tags.sampled_refs            367746                       # Sample count of references to valid blocks.
system.cpu.dcache.tags.avg_refs             14.369383                       # Average number of references to valid blocks.
system.cpu.dcache.tags.warmup_cycle                 0                       # Cycle when the warmup percentage was hit.
system.cpu.dcache.tags.occ_blocks::.cpu.data   853.650546                       # Average occupied blocks per requestor
system.cpu.dcache.tags.occ_blocks::.switch_cpus.data   169.466749                       # Average occupied blocks per requestor
system.cpu.dcache.tags.occ_percent::.cpu.data     0.833643                       # Average percentage of cache occupancy
system.cpu.dcache.tags.occ_percent::.switch_cpus.data     0.165495                       # Average percentage of cache occupancy
system.cpu.dcache.tags.occ_percent::total     0.999138                       # Average percentage of cache occupancy
system.cpu.dcache.tags.occ_task_id_blocks::1024         1024                       # Occupied blocks per task id
system.cpu.dcache.tags.age_task_id_blocks_1024::0            2                       # Occupied blocks per task id
system.cpu.dcache.tags.age_task_id_blocks_1024::1           22                       # Occupied blocks per task id
system.cpu.dcache.tags.age_task_id_blocks_1024::2          891                       # Occupied blocks per task id
system.cpu.dcache.tags.age_task_id_blocks_1024::3          100                       # Occupied blocks per task id
system.cpu.dcache.tags.age_task_id_blocks_1024::4            9                       # Occupied blocks per task id
system.cpu.dcache.tags.occ_task_id_percent::1024            1                       # Percentage of cache occupancy per task id
system.cpu.dcache.tags.tag_accesses          10593481                       # Number of tag accesses
system.cpu.dcache.tags.data_accesses         10593481                       # Number of data accesses
system.cpu.dcache.tags.power_state.pwrStateResidencyTicks::UNDEFINED  36434774500                       # Cumulative time (in ticks) in various power states
system.cpu.dtb.rdAccesses                           0                       # TLB accesses on read requests
system.cpu.dtb.wrAccesses                           0                       # TLB accesses on write requests
system.cpu.dtb.rdMisses                             0                       # TLB misses on read requests
system.cpu.dtb.wrMisses                             0                       # TLB misses on write requests
system.cpu.dtb.walker.power_state.pwrStateResidencyTicks::UNDEFINED  36434774500                       # Cumulative time (in ticks) in various power states
system.cpu.dtb_walker_cache.blocked_cycles::no_mshrs            0                       # number of cycles access was blocked
system.cpu.dtb_walker_cache.blocked_cycles::no_targets            0                       # number of cycles access was blocked
system.cpu.dtb_walker_cache.blocked::no_mshrs            0                       # number of cycles access was blocked
system.cpu.dtb_walker_cache.blocked::no_targets            0                       # number of cycles access was blocked
system.cpu.dtb_walker_cache.avg_blocked_cycles::no_mshrs          nan                       # average number of cycles each access was blocked
system.cpu.dtb_walker_cache.avg_blocked_cycles::no_targets          nan                       # average number of cycles each access was blocked
system.cpu.dtb_walker_cache.replacements            0                       # number of replacements
system.cpu.dtb_walker_cache.power_state.pwrStateResidencyTicks::UNDEFINED  36434774500                       # Cumulative time (in ticks) in various power states
system.cpu.dtb_walker_cache.tags.tagsinuse            0                       # Cycle average of tags in use
system.cpu.dtb_walker_cache.tags.total_refs            0                       # Total number of references to valid blocks.
system.cpu.dtb_walker_cache.tags.sampled_refs            0                       # Sample count of references to valid blocks.
system.cpu.dtb_walker_cache.tags.avg_refs          nan                       # Average number of references to valid blocks.
system.cpu.dtb_walker_cache.tags.warmup_cycle            0                       # Cycle when the warmup percentage was hit.
system.cpu.dtb_walker_cache.tags.tag_accesses            0                       # Number of tag accesses
system.cpu.dtb_walker_cache.tags.data_accesses            0                       # Number of data accesses
system.cpu.dtb_walker_cache.tags.power_state.pwrStateResidencyTicks::UNDEFINED  36434774500                       # Cumulative time (in ticks) in various power states
system.cpu.icache.demand_hits::.switch_cpus.inst      2365194                       # number of demand (read+write) hits
system.cpu.icache.demand_hits::total          2365194                       # number of demand (read+write) hits
system.cpu.icache.overall_hits::.switch_cpus.inst      2365194                       # number of overall hits
system.cpu.icache.overall_hits::total         2365194                       # number of overall hits
system.cpu.icache.demand_misses::.switch_cpus.inst          778                       # number of demand (read+write) misses
system.cpu.icache.demand_misses::total            778                       # number of demand (read+write) misses
system.cpu.icache.overall_misses::.switch_cpus.inst          778                       # number of overall misses
system.cpu.icache.overall_misses::total           778                       # number of overall misses
system.cpu.icache.demand_miss_latency::.switch_cpus.inst     52800000                       # number of demand (read+write) miss cycles
system.cpu.icache.demand_miss_latency::total     52800000                       # number of demand (read+write) miss cycles
system.cpu.icache.overall_miss_latency::.switch_cpus.inst     52800000                       # number of overall miss cycles
system.cpu.icache.overall_miss_latency::total     52800000                       # number of overall miss cycles
system.cpu.icache.demand_accesses::.switch_cpus.inst      2365972                       # number of demand (read+write) accesses
system.cpu.icache.demand_accesses::total      2365972                       # number of demand (read+write) accesses
system.cpu.icache.overall_accesses::.switch_cpus.inst      2365972                       # number of overall (read+write) accesses
system.cpu.icache.overall_accesses::total      2365972                       # number of overall (read+write) accesses
system.cpu.icache.demand_miss_rate::.switch_cpus.inst     0.000329                       # miss rate for demand accesses
system.cpu.icache.demand_miss_rate::total     0.000329                       # miss rate for demand accesses
system.cpu.icache.overall_miss_rate::.switch_cpus.inst     0.000329                       # miss rate for overall accesses
system.cpu.icache.overall_miss_rate::total     0.000329                       # miss rate for overall accesses
system.cpu.icache.demand_avg_miss_latency::.switch_cpus.inst 67866.323907                       # average overall miss latency
system.cpu.icache.demand_avg_miss_latency::total 67866.323907                       # average overall miss latency
system.cpu.icache.overall_avg_miss_latency::.switch_cpus.inst 67866.323907                       # average overall miss latency
system.cpu.icache.overall_avg_miss_latency::total 67866.323907                       # average overall miss latency
system.cpu.icache.blocked_cycles::no_mshrs          260                       # number of cycles access was blocked
system.cpu.icache.blocked_cycles::no_targets            0                       # number of cycles access was blocked
system.cpu.icache.blocked::no_mshrs                 4                       # number of cycles access was blocked
system.cpu.icache.blocked::no_targets               0                       # number of cycles access was blocked
system.cpu.icache.avg_blocked_cycles::no_mshrs           65                       # average number of cycles each access was blocked
system.cpu.icache.avg_blocked_cycles::no_targets          nan                       # average number of cycles each access was blocked
system.cpu.icache.writebacks::.writebacks          431                       # number of writebacks
system.cpu.icache.writebacks::total               431                       # number of writebacks
system.cpu.icache.demand_mshr_hits::.switch_cpus.inst          186                       # number of demand (read+write) MSHR hits
system.cpu.icache.demand_mshr_hits::total          186                       # number of demand (read+write) MSHR hits
system.cpu.icache.overall_mshr_hits::.switch_cpus.inst          186                       # number of overall MSHR hits
system.cpu.icache.overall_mshr_hits::total          186                       # number of overall MSHR hits
system.cpu.icache.demand_mshr_misses::.switch_cpus.inst          592                       # number of demand (read+write) MSHR misses
system.cpu.icache.demand_mshr_misses::total          592                       # number of demand (read+write) MSHR misses
system.cpu.icache.overall_mshr_misses::.switch_cpus.inst          592                       # number of overall MSHR misses
system.cpu.icache.overall_mshr_misses::total          592                       # number of overall MSHR misses
system.cpu.icache.demand_mshr_miss_latency::.switch_cpus.inst     40765000                       # number of demand (read+write) MSHR miss cycles
system.cpu.icache.demand_mshr_miss_latency::total     40765000                       # number of demand (read+write) MSHR miss cycles
system.cpu.icache.overall_mshr_miss_latency::.switch_cpus.inst     40765000                       # number of overall MSHR miss cycles
system.cpu.icache.overall_mshr_miss_latency::total     40765000                       # number of overall MSHR miss cycles
system.cpu.icache.demand_mshr_miss_rate::.switch_cpus.inst     0.000250                       # mshr miss rate for demand accesses
system.cpu.icache.demand_mshr_miss_rate::total     0.000250                       # mshr miss rate for demand accesses
system.cpu.icache.overall_mshr_miss_rate::.switch_cpus.inst     0.000250                       # mshr miss rate for overall accesses
system.cpu.icache.overall_mshr_miss_rate::total     0.000250                       # mshr miss rate for overall accesses
system.cpu.icache.demand_avg_mshr_miss_latency::.switch_cpus.inst 68859.797297                       # average overall mshr miss latency
system.cpu.icache.demand_avg_mshr_miss_latency::total 68859.797297                       # average overall mshr miss latency
system.cpu.icache.overall_avg_mshr_miss_latency::.switch_cpus.inst 68859.797297                       # average overall mshr miss latency
system.cpu.icache.overall_avg_mshr_miss_latency::total 68859.797297                       # average overall mshr miss latency
system.cpu.icache.replacements                    431                       # number of replacements
system.cpu.icache.ReadReq_hits::.switch_cpus.inst      2365194                       # number of ReadReq hits
system.cpu.icache.ReadReq_hits::total         2365194                       # number of ReadReq hits
system.cpu.icache.ReadReq_misses::.switch_cpus.inst          778                       # number of ReadReq misses
system.cpu.icache.ReadReq_misses::total           778                       # number of ReadReq misses
system.cpu.icache.ReadReq_miss_latency::.switch_cpus.inst     52800000                       # number of ReadReq miss cycles
system.cpu.icache.ReadReq_miss_latency::total     52800000                       # number of ReadReq miss cycles
system.cpu.icache.ReadReq_accesses::.switch_cpus.inst      2365972                       # number of ReadReq accesses(hits+misses)
system.cpu.icache.ReadReq_accesses::total      2365972                       # number of ReadReq accesses(hits+misses)
system.cpu.icache.ReadReq_miss_rate::.switch_cpus.inst     0.000329                       # miss rate for ReadReq accesses
system.cpu.icache.ReadReq_miss_rate::total     0.000329                       # miss rate for ReadReq accesses
system.cpu.icache.ReadReq_avg_miss_latency::.switch_cpus.inst 67866.323907                       # average ReadReq miss latency
system.cpu.icache.ReadReq_avg_miss_latency::total 67866.323907                       # average ReadReq miss latency
system.cpu.icache.ReadReq_mshr_hits::.switch_cpus.inst          186                       # number of ReadReq MSHR hits
system.cpu.icache.ReadReq_mshr_hits::total          186                       # number of ReadReq MSHR hits
system.cpu.icache.ReadReq_mshr_misses::.switch_cpus.inst          592                       # number of ReadReq MSHR misses
system.cpu.icache.ReadReq_mshr_misses::total          592                       # number of ReadReq MSHR misses
system.cpu.icache.ReadReq_mshr_miss_latency::.switch_cpus.inst     40765000                       # number of ReadReq MSHR miss cycles
system.cpu.icache.ReadReq_mshr_miss_latency::total     40765000                       # number of ReadReq MSHR miss cycles
system.cpu.icache.ReadReq_mshr_miss_rate::.switch_cpus.inst     0.000250                       # mshr miss rate for ReadReq accesses
system.cpu.icache.ReadReq_mshr_miss_rate::total     0.000250                       # mshr miss rate for ReadReq accesses
system.cpu.icache.ReadReq_avg_mshr_miss_latency::.switch_cpus.inst 68859.797297                       # average ReadReq mshr miss latency
system.cpu.icache.ReadReq_avg_mshr_miss_latency::total 68859.797297                       # average ReadReq mshr miss latency
system.cpu.icache.power_state.pwrStateResidencyTicks::UNDEFINED  36434774500                       # Cumulative time (in ticks) in various power states
system.cpu.icache.tags.tagsinuse           805.124887                       # Cycle average of tags in use
system.cpu.icache.tags.total_refs             3617053                       # Total number of references to valid blocks.
system.cpu.icache.tags.sampled_refs              1375                       # Sample count of references to valid blocks.
system.cpu.icache.tags.avg_refs           2630.584000                       # Average number of references to valid blocks.
system.cpu.icache.tags.warmup_cycle                 0                       # Cycle when the warmup percentage was hit.
system.cpu.icache.tags.occ_blocks::.cpu.inst   740.890413                       # Average occupied blocks per requestor
system.cpu.icache.tags.occ_blocks::.switch_cpus.inst    64.234474                       # Average occupied blocks per requestor
system.cpu.icache.tags.occ_percent::.cpu.inst     0.723526                       # Average percentage of cache occupancy
system.cpu.icache.tags.occ_percent::.switch_cpus.inst     0.062729                       # Average percentage of cache occupancy
system.cpu.icache.tags.occ_percent::total     0.786255                       # Average percentage of cache occupancy
system.cpu.icache.tags.occ_task_id_blocks::1024          944                       # Occupied blocks per task id
system.cpu.icache.tags.age_task_id_blocks_1024::2            6                       # Occupied blocks per task id
system.cpu.icache.tags.age_task_id_blocks_1024::3          463                       # Occupied blocks per task id
system.cpu.icache.tags.age_task_id_blocks_1024::4          475                       # Occupied blocks per task id
system.cpu.icache.tags.occ_task_id_percent::1024     0.921875                       # Percentage of cache occupancy per task id
system.cpu.icache.tags.tag_accesses           4732536                       # Number of tag accesses
system.cpu.icache.tags.data_accesses          4732536                       # Number of data accesses
system.cpu.icache.tags.power_state.pwrStateResidencyTicks::UNDEFINED  36434774500                       # Cumulative time (in ticks) in various power states
system.cpu.interrupts.clk_domain.clock           8000                       # Clock period in ticks
system.cpu.itb.rdAccesses                           0                       # TLB accesses on read requests
system.cpu.itb.wrAccesses                           0                       # TLB accesses on write requests
system.cpu.itb.rdMisses                             0                       # TLB misses on read requests
system.cpu.itb.wrMisses                             0                       # TLB misses on write requests
system.cpu.itb.walker.power_state.pwrStateResidencyTicks::UNDEFINED  36434774500                       # Cumulative time (in ticks) in various power states
system.cpu.itb_walker_cache.blocked_cycles::no_mshrs            0                       # number of cycles access was blocked
system.cpu.itb_walker_cache.blocked_cycles::no_targets            0                       # number of cycles access was blocked
system.cpu.itb_walker_cache.blocked::no_mshrs            0                       # number of cycles access was blocked
system.cpu.itb_walker_cache.blocked::no_targets            0                       # number of cycles access was blocked
system.cpu.itb_walker_cache.avg_blocked_cycles::no_mshrs          nan                       # average number of cycles each access was blocked
system.cpu.itb_walker_cache.avg_blocked_cycles::no_targets          nan                       # average number of cycles each access was blocked
system.cpu.itb_walker_cache.replacements            0                       # number of replacements
system.cpu.itb_walker_cache.power_state.pwrStateResidencyTicks::UNDEFINED  36434774500                       # Cumulative time (in ticks) in various power states
system.cpu.itb_walker_cache.tags.tagsinuse            0                       # Cycle average of tags in use
system.cpu.itb_walker_cache.tags.total_refs            0                       # Total number of references to valid blocks.
system.cpu.itb_walker_cache.tags.sampled_refs            0                       # Sample count of references to valid blocks.
system.cpu.itb_walker_cache.tags.avg_refs          nan                       # Average number of references to valid blocks.
system.cpu.itb_walker_cache.tags.warmup_cycle            0                       # Cycle when the warmup percentage was hit.
system.cpu.itb_walker_cache.tags.tag_accesses            0                       # Number of tag accesses
system.cpu.itb_walker_cache.tags.data_accesses            0                       # Number of data accesses
system.cpu.itb_walker_cache.tags.power_state.pwrStateResidencyTicks::UNDEFINED  36434774500                       # Cumulative time (in ticks) in various power states
system.cpu.power_state.pwrStateResidencyTicks::OFF  35401441500                       # Cumulative time (in ticks) in various power states
system.cpu.thread_0.numInsts                        0                       # Number of Instructions committed
system.cpu.thread_0.numOps                          0                       # Number of Ops committed
system.cpu.thread_0.numMemRefs                      0                       # Number of Memory References
system.cpu_clk_domain.clock                       500                       # Clock period in ticks
system.cpu_voltage_domain.voltage                   1                       # Voltage in Volts
system.l2.demand_hits::.switch_cpus.inst           94                       # number of demand (read+write) hits
system.l2.demand_hits::.switch_cpus.data         4976                       # number of demand (read+write) hits
system.l2.demand_hits::total                     5070                       # number of demand (read+write) hits
system.l2.overall_hits::.switch_cpus.inst           94                       # number of overall hits
system.l2.overall_hits::.switch_cpus.data         4976                       # number of overall hits
system.l2.overall_hits::total                    5070                       # number of overall hits
system.l2.demand_misses::.switch_cpus.inst          498                       # number of demand (read+write) misses
system.l2.demand_misses::.switch_cpus.data       361747                       # number of demand (read+write) misses
system.l2.demand_misses::total                 362245                       # number of demand (read+write) misses
system.l2.overall_misses::.switch_cpus.inst          498                       # number of overall misses
system.l2.overall_misses::.switch_cpus.data       361747                       # number of overall misses
system.l2.overall_misses::total                362245                       # number of overall misses
system.l2.demand_miss_latency::.switch_cpus.inst     38877000                       # number of demand (read+write) miss cycles
system.l2.demand_miss_latency::.switch_cpus.data  28313501000                       # number of demand (read+write) miss cycles
system.l2.demand_miss_latency::total      28352378000                       # number of demand (read+write) miss cycles
system.l2.overall_miss_latency::.switch_cpus.inst     38877000                       # number of overall miss cycles
system.l2.overall_miss_latency::.switch_cpus.data  28313501000                       # number of overall miss cycles
system.l2.overall_miss_latency::total     28352378000                       # number of overall miss cycles
system.l2.demand_accesses::.switch_cpus.inst          592                       # number of demand (read+write) accesses
system.l2.demand_accesses::.switch_cpus.data       366723                       # number of demand (read+write) accesses
system.l2.demand_accesses::total               367315                       # number of demand (read+write) accesses
system.l2.overall_accesses::.switch_cpus.inst          592                       # number of overall (read+write) accesses
system.l2.overall_accesses::.switch_cpus.data       366723                       # number of overall (read+write) accesses
system.l2.overall_accesses::total              367315                       # number of overall (read+write) accesses
system.l2.demand_miss_rate::.switch_cpus.inst     0.841216                       # miss rate for demand accesses
system.l2.demand_miss_rate::.switch_cpus.data     0.986431                       # miss rate for demand accesses
system.l2.demand_miss_rate::total            0.986197                       # miss rate for demand accesses
system.l2.overall_miss_rate::.switch_cpus.inst     0.841216                       # miss rate for overall accesses
system.l2.overall_miss_rate::.switch_cpus.data     0.986431                       # miss rate for overall accesses
system.l2.overall_miss_rate::total           0.986197                       # miss rate for overall accesses
system.l2.demand_avg_miss_latency::.switch_cpus.inst 78066.265060                       # average overall miss latency
system.l2.demand_avg_miss_latency::.switch_cpus.data 78268.792830                       # average overall miss latency
system.l2.demand_avg_miss_latency::total 78268.514403                       # average overall miss latency
system.l2.overall_avg_miss_latency::.switch_cpus.inst 78066.265060                       # average overall miss latency
system.l2.overall_avg_miss_latency::.switch_cpus.data 78268.792830                       # average overall miss latency
system.l2.overall_avg_miss_latency::total 78268.514403                       # average overall miss latency
system.l2.blocked_cycles::no_mshrs                  0                       # number of cycles access was blocked
system.l2.blocked_cycles::no_targets                0                       # number of cycles access was blocked
system.l2.blocked::no_mshrs                         0                       # number of cycles access was blocked
system.l2.blocked::no_targets                       0                       # number of cycles access was blocked
system.l2.avg_blocked_cycles::no_mshrs            nan                       # average number of cycles each access was blocked
system.l2.avg_blocked_cycles::no_targets          nan                       # average number of cycles each access was blocked
system.l2.writebacks::.writebacks              357510                       # number of writebacks
system.l2.writebacks::total                    357510                       # number of writebacks
system.l2.demand_mshr_misses::.switch_cpus.inst          498                       # number of demand (read+write) MSHR misses
system.l2.demand_mshr_misses::.switch_cpus.data       361747                       # number of demand (read+write) MSHR misses
system.l2.demand_mshr_misses::total            362245                       # number of demand (read+write) MSHR misses
system.l2.overall_mshr_misses::.switch_cpus.inst          498                       # number of overall MSHR misses
system.l2.overall_mshr_misses::.switch_cpus.data       361747                       # number of overall MSHR misses
system.l2.overall_mshr_misses::total           362245                       # number of overall MSHR misses
system.l2.demand_mshr_miss_latency::.switch_cpus.inst     33897000                       # number of demand (read+write) MSHR miss cycles
system.l2.demand_mshr_miss_latency::.switch_cpus.data  24696031000                       # number of demand (read+write) MSHR miss cycles
system.l2.demand_mshr_miss_latency::total  24729928000                       # number of demand (read+write) MSHR miss cycles
system.l2.overall_mshr_miss_latency::.switch_cpus.inst     33897000                       # number of overall MSHR miss cycles
system.l2.overall_mshr_miss_latency::.switch_cpus.data  24696031000                       # number of overall MSHR miss cycles
system.l2.overall_mshr_miss_latency::total  24729928000                       # number of overall MSHR miss cycles
system.l2.demand_mshr_miss_rate::.switch_cpus.inst     0.841216                       # mshr miss rate for demand accesses
system.l2.demand_mshr_miss_rate::.switch_cpus.data     0.986431                       # mshr miss rate for demand accesses
system.l2.demand_mshr_miss_rate::total       0.986197                       # mshr miss rate for demand accesses
system.l2.overall_mshr_miss_rate::.switch_cpus.inst     0.841216                       # mshr miss rate for overall accesses
system.l2.overall_mshr_miss_rate::.switch_cpus.data     0.986431                       # mshr miss rate for overall accesses
system.l2.overall_mshr_miss_rate::total      0.986197                       # mshr miss rate for overall accesses
system.l2.demand_avg_mshr_miss_latency::.switch_cpus.inst 68066.265060                       # average overall mshr miss latency
system.l2.demand_avg_mshr_miss_latency::.switch_cpus.data 68268.792830                       # average overall mshr miss latency
system.l2.demand_avg_mshr_miss_latency::total 68268.514403                       # average overall mshr miss latency
system.l2.overall_avg_mshr_miss_latency::.switch_cpus.inst 68066.265060                       # average overall mshr miss latency
system.l2.overall_avg_mshr_miss_latency::.switch_cpus.data 68268.792830                       # average overall mshr miss latency
system.l2.overall_avg_mshr_miss_latency::total 68268.514403                       # average overall mshr miss latency
system.l2.replacements                         358288                       # number of replacements
system.l2.WritebackDirty_hits::.writebacks       364313                       # number of WritebackDirty hits
system.l2.WritebackDirty_hits::total           364313                       # number of WritebackDirty hits
system.l2.WritebackDirty_accesses::.writebacks       364313                       # number of WritebackDirty accesses(hits+misses)
system.l2.WritebackDirty_accesses::total       364313                       # number of WritebackDirty accesses(hits+misses)
system.l2.WritebackClean_hits::.writebacks          430                       # number of WritebackClean hits
system.l2.WritebackClean_hits::total              430                       # number of WritebackClean hits
system.l2.WritebackClean_accesses::.writebacks          430                       # number of WritebackClean accesses(hits+misses)
system.l2.WritebackClean_accesses::total          430                       # number of WritebackClean accesses(hits+misses)
system.l2.ReadExReq_hits::.switch_cpus.data          764                       # number of ReadExReq hits
system.l2.ReadExReq_hits::total                   764                       # number of ReadExReq hits
system.l2.ReadExReq_misses::.switch_cpus.data       361063                       # number of ReadExReq misses
system.l2.ReadExReq_misses::total              361063                       # number of ReadExReq misses
system.l2.ReadExReq_miss_latency::.switch_cpus.data  28259690500                       # number of ReadExReq miss cycles
system.l2.ReadExReq_miss_latency::total   28259690500                       # number of ReadExReq miss cycles
system.l2.ReadExReq_accesses::.switch_cpus.data       361827                       # number of ReadExReq accesses(hits+misses)
system.l2.ReadExReq_accesses::total            361827                       # number of ReadExReq accesses(hits+misses)
system.l2.ReadExReq_miss_rate::.switch_cpus.data     0.997888                       # miss rate for ReadExReq accesses
system.l2.ReadExReq_miss_rate::total         0.997888                       # miss rate for ReadExReq accesses
[...]
system.switch_cpus.commit.committedInstType_0::FloatSqrt            0      0.00%     83.38% # Class of committed instruction
system.switch_cpus.commit.committedInstType_0::SimdAdd            0      0.00%     83.38% # Class of committed instruction
system.switch_cpus.commit.committedInstType_0::SimdAddAcc            0      0.00%     83.38% # Class of committed instruction
system.switch_cpus.commit.committedInstType_0::SimdAlu           38      0.00%     83.38% # Class of committed instruction
system.switch_cpus.commit.committedInstType_0::SimdCmp            0      0.00%     83.38% # Class of committed instruction
system.switch_cpus.commit.committedInstType_0::SimdCvt           16      0.00%     83.38% # Class of committed instruction
system.switch_cpus.commit.committedInstType_0::SimdMisc          195      0.00%     83.39% # Class of committed instruction
system.switch_cpus.commit.committedInstType_0::SimdMult            0      0.00%     83.39% # Class of committed instruction
system.switch_cpus.commit.committedInstType_0::SimdMultAcc            0      0.00%     83.39% # Class of committed instruction
system.switch_cpus.commit.committedInstType_0::SimdShift            0      0.00%     83.39% # Class of committed instruction
system.switch_cpus.commit.committedInstType_0::SimdShiftAcc            0      0.00%     83.39% # Class of committed instruction
system.switch_cpus.commit.committedInstType_0::SimdDiv            0      0.00%     83.39% # Class of committed instruction
system.switch_cpus.commit.committedInstType_0::SimdSqrt            0      0.00%     83.39% # Class of committed instruction
system.switch_cpus.commit.committedInstType_0::SimdFloatAdd            0      0.00%     83.39% # Class of committed instruction
system.switch_cpus.commit.committedInstType_0::SimdFloatAlu            0      0.00%     83.39% # Class of committed instruction
system.switch_cpus.commit.committedInstType_0::SimdFloatCmp            0      0.00%     83.39% # Class of committed instruction
system.switch_cpus.commit.committedInstType_0::SimdFloatCvt            0      0.00%     83.39% # Class of committed instruction
system.switch_cpus.commit.committedInstType_0::SimdFloatDiv            0      0.00%     83.39% # Class of committed instruction
system.switch_cpus.commit.committedInstType_0::SimdFloatMisc            0      0.00%     83.39% # Class of committed instruction
system.switch_cpus.commit.committedInstType_0::SimdFloatMult            0      0.00%     83.39% # Class of committed instruction
system.switch_cpus.commit.committedInstType_0::SimdFloatMultAcc            0      0.00%     83.39% # Class of committed instruction
system.switch_cpus.commit.committedInstType_0::SimdFloatSqrt            0      0.00%     83.39% # Class of committed instruction
system.switch_cpus.commit.committedInstType_0::SimdReduceAdd            0      0.00%     83.39% # Class of committed instruction
system.switch_cpus.commit.committedInstType_0::SimdReduceAlu            0      0.00%     83.39% # Class of committed instruction
system.switch_cpus.commit.committedInstType_0::SimdReduceCmp            0      0.00%     83.39% # Class of committed instruction
system.switch_cpus.commit.committedInstType_0::SimdFloatReduceAdd            0      0.00%     83.39% # Class of committed instruction
system.switch_cpus.commit.committedInstType_0::SimdFloatReduceCmp            0      0.00%     83.39% # Class of committed instruction
system.switch_cpus.commit.committedInstType_0::SimdAes            0      0.00%     83.39% # Class of committed instruction
system.switch_cpus.commit.committedInstType_0::SimdAesMix            0      0.00%     83.39% # Class of committed instruction
system.switch_cpus.commit.committedInstType_0::SimdSha1Hash            0      0.00%     83.39% # Class of committed instruction
system.switch_cpus.commit.committedInstType_0::SimdSha1Hash2            0      0.00%     83.39% # Class of committed instruction
system.switch_cpus.commit.committedInstType_0::SimdSha256Hash            0      0.00%     83.39% # Class of committed instruction
system.switch_cpus.commit.committedInstType_0::SimdSha256Hash2            0      0.00%     83.39% # Class of committed instruction
system.switch_cpus.commit.committedInstType_0::SimdShaSigma2            0      0.00%     83.39% # Class of committed instruction
system.switch_cpus.commit.committedInstType_0::SimdShaSigma3            0      0.00%     83.39% # Class of committed instruction
system.switch_cpus.commit.committedInstType_0::SimdPredAlu            0      0.00%     83.39% # Class of committed instruction
system.switch_cpus.commit.committedInstType_0::MemRead      1552130      9.94%     93.32% # Class of committed instruction
system.switch_cpus.commit.committedInstType_0::MemWrite       959935      6.14%     99.47% # Class of committed instruction
system.switch_cpus.commit.committedInstType_0::FloatMemRead        41594      0.27%     99.73% # Class of committed instruction
system.switch_cpus.commit.committedInstType_0::FloatMemWrite        41766      0.27%    100.00% # Class of committed instruction
system.switch_cpus.commit.committedInstType_0::IprAccess            0      0.00%    100.00% # Class of committed instruction
system.switch_cpus.commit.committedInstType_0::InstPrefetch            0      0.00%    100.00% # Class of committed instruction
system.switch_cpus.commit.committedInstType_0::total     15621644                       # Class of committed instruction
system.switch_cpus.commit.commitEligibleSamples       869563                       # number cycles where commit BW limit reached
system.switch_cpus.decode.idleCycles          2072127                       # Number of cycles decode is idle
system.switch_cpus.decode.blockedCycles      60709921                       # Number of cycles decode is blocked
system.switch_cpus.decode.runCycles           6893573                       # Number of cycles decode is running
system.switch_cpus.decode.unblockCycles        823382                       # Number of cycles decode is unblocking
system.switch_cpus.decode.squashCycles         265631                       # Number of cycles decode is squashing
system.switch_cpus.decode.branchResolved      3734504                       # Number of times decode resolved a  branch
system.switch_cpus.decode.branchMispred           394                       # Number of times decode detected a branch misprediction
system.switch_cpus.decode.decodedInsts       45276687                       # Number of instructions handled by decode
system.switch_cpus.decode.squashedInsts          1983                       # Number of squashed instructions handled by decode
system.switch_cpus.dtb.rdAccesses             4375896                       # TLB accesses on read requests
system.switch_cpus.dtb.wrAccesses             3657425                       # TLB accesses on write requests
system.switch_cpus.dtb.rdMisses                   222                       # TLB misses on read requests
system.switch_cpus.dtb.wrMisses               2052599                       # TLB misses on write requests
system.switch_cpus.dtb.walker.power_state.pwrStateResidencyTicks::UNDEFINED  36434774500                       # Cumulative time (in ticks) in various power states
system.switch_cpus.fetch.icacheStallCycles      2508226                       # Number of cycles fetch is stalled on an Icache miss
system.switch_cpus.fetch.insts               30594456                       # Number of instructions fetch has processed
system.switch_cpus.fetch.branches             4746252                       # Number of branches that fetch encountered
system.switch_cpus.fetch.predictedBranches      4208099                       # Number of branches that fetch has predicted taken
system.switch_cpus.fetch.cycles              67989966                       # Number of cycles fetch has run and was not squashing or blocked
system.switch_cpus.fetch.squashCycles          532036                       # Number of cycles fetch has spent squashing
system.switch_cpus.fetch.miscStallCycles           49                       # Number of cycles fetch has spent waiting on interrupts,or bad addresses, or out of MSHRs
system.switch_cpus.fetch.pendingTrapStallCycles          331                       # Number of stall cycles due to pending traps
system.switch_cpus.fetch.icacheWaitRetryStallCycles           49                       # Number of stall cycles due to full MSHR
system.switch_cpus.fetch.cacheLines           2365972                       # Number of cache lines fetched
system.switch_cpus.fetch.icacheSquashes         42349                       # Number of outstanding Icache misses that were squashed
system.switch_cpus.fetch.nisnDist::samples     70764639                       # Number of instructions fetched each cycle (Total)
system.switch_cpus.fetch.nisnDist::mean      0.716330                       # Number of instructions fetched each cycle (Total)
system.switch_cpus.fetch.nisnDist::stdev     2.113936                       # Number of instructions fetched each cycle (Total)
system.switch_cpus.fetch.nisnDist::underflows            0      0.00%      0.00% # Number of instructions fetched each cycle (Total)
system.switch_cpus.fetch.nisnDist::0         60888754     86.04%     86.04% # Number of instructions fetched each cycle (Total)
system.switch_cpus.fetch.nisnDist::1          2711797      3.83%     89.88% # Number of instructions fetched each cycle (Total)
system.switch_cpus.fetch.nisnDist::2           345202      0.49%     90.36% # Number of instructions fetched each cycle (Total)
system.switch_cpus.fetch.nisnDist::3           566638      0.80%     91.16% # Number of instructions fetched each cycle (Total)
system.switch_cpus.fetch.nisnDist::4           446776      0.63%     91.80% # Number of instructions fetched each cycle (Total)
system.switch_cpus.fetch.nisnDist::5           638932      0.90%     92.70% # Number of instructions fetched each cycle (Total)
system.switch_cpus.fetch.nisnDist::6           223592      0.32%     93.01% # Number of instructions fetched each cycle (Total)
system.switch_cpus.fetch.nisnDist::7           278208      0.39%     93.41% # Number of instructions fetched each cycle (Total)
system.switch_cpus.fetch.nisnDist::8          4664740      6.59%    100.00% # Number of instructions fetched each cycle (Total)
system.switch_cpus.fetch.nisnDist::overflows            0      0.00%    100.00% # Number of instructions fetched each cycle (Total)
system.switch_cpus.fetch.nisnDist::min_value            0                       # Number of instructions fetched each cycle (Total)
system.switch_cpus.fetch.nisnDist::max_value            8                       # Number of instructions fetched each cycle (Total)
system.switch_cpus.fetch.nisnDist::total     70764639                       # Number of instructions fetched each cycle (Total)
system.switch_cpus.fetch.branchRate          0.067035                       # Number of branch fetches per cycle
system.switch_cpus.fetch.rate                0.432107                       # Number of inst fetches per cycle
system.switch_cpus.itb.rdAccesses                   0                       # TLB accesses on read requests
system.switch_cpus.itb.wrAccesses             2366024                       # TLB accesses on write requests
system.switch_cpus.itb.rdMisses                     0                       # TLB misses on read requests
system.switch_cpus.itb.wrMisses                    92                       # TLB misses on write requests
system.switch_cpus.itb.walker.power_state.pwrStateResidencyTicks::UNDEFINED  36434774500                       # Cumulative time (in ticks) in various power states
system.switch_cpus.lsq0.forwLoads              265888                       # Number of loads that had data forwarded from stores
system.switch_cpus.lsq0.squashedLoads         3091928                       # Number of loads squashed
system.switch_cpus.lsq0.ignoredResponses         2809                       # Number of memory responses ignored because the instruction is squashed
system.switch_cpus.lsq0.memOrderViolation         1082                       # Number of memory ordering violations
system.switch_cpus.lsq0.squashedStores        2990892                       # Number of stores squashed
system.switch_cpus.lsq0.rescheduledLoads            1                       # Number of loads that were rescheduled
system.switch_cpus.lsq0.blockedByCache             31                       # Number of times an access to memory failed due to the cache being blocked
system.switch_cpus.power_state.pwrStateResidencyTicks::OFF  36434774500                       # Cumulative time (in ticks) in various power states
system.switch_cpus.rename.squashCycles         265631                       # Number of cycles rename is squashing
system.switch_cpus.rename.idleCycles          2476994                       # Number of cycles rename is idle
system.switch_cpus.rename.blockCycles        59252356                       # Number of cycles rename is blocking
system.switch_cpus.rename.serializeStallCycles            0                       # count of cycles rename stalledfor serializing inst
system.switch_cpus.rename.runCycles           7297394                       # Number of cycles rename is running
system.switch_cpus.rename.unblockCycles       1472259                       # Number of cycles rename is unblocking
system.switch_cpus.rename.renamedInsts       44196181                       # Number of instructions processed by rename
system.switch_cpus.rename.ROBFullEvents        269410                       # Number of times rename has blocked due to ROB full
system.switch_cpus.rename.IQFullEvents         601216                       # Number of times rename has blocked due to IQ full
system.switch_cpus.rename.LQFullEvents            684                       # Number of times rename has blocked due to LQ full
system.switch_cpus.rename.SQFullEvents         556507                       # Number of times rename has blocked due to SQ full
system.switch_cpus.rename.renamedOperands     58297315                       # Number of destination operands rename has renamed
system.switch_cpus.rename.lookups           106777527                       # Number of register rename lookups that rename has made
system.switch_cpus.rename.intLookups         67576068                       # Number of integer rename lookups
system.switch_cpus.rename.fpLookups            422236                       # Number of floating rename lookups
system.switch_cpus.rename.committedMaps      21895928                       # Number of HB maps that are committed
system.switch_cpus.rename.undoneMaps         36401328                       # Number of HB maps that are undone due to squashing
system.switch_cpus.rename.serializing               0                       # count of serializing insts renamed
system.switch_cpus.rename.tempSerializing            0                       # count of temporary serializing insts renamed
system.switch_cpus.rename.skidInsts           2518599                       # count of insts added to the skid buffer
system.switch_cpus.rob.reads                107763590                       # The number of ROB reads
system.switch_cpus.rob.writes                88915471                       # The number of ROB writes
system.switch_cpus.thread_0.numInsts         10000001                       # Number of Instructions committed
system.switch_cpus.thread_0.numOps           15621644                       # Number of Ops committed
system.switch_cpus.thread_0.numMemRefs              0                       # Number of Memory References
system.tol2bus.trans_dist::ReadResp              5488                       # Transaction distribution
system.tol2bus.trans_dist::WritebackDirty       721823                       # Transaction distribution
system.tol2bus.trans_dist::WritebackClean          431                       # Transaction distribution
system.tol2bus.trans_dist::CleanEvict            3187                       # Transaction distribution
system.tol2bus.trans_dist::ReadExReq           361827                       # Transaction distribution
system.tol2bus.trans_dist::ReadExResp          361827                       # Transaction distribution
system.tol2bus.trans_dist::ReadCleanReq           592                       # Transaction distribution
system.tol2bus.trans_dist::ReadSharedReq         4896                       # Transaction distribution
system.tol2bus.pkt_count_system.cpu.icache.mem_side_port::system.l2.cpu_side_port         1615                       # Packet count per connected requestor and responder (bytes)
system.tol2bus.pkt_count_system.cpu.dcache.mem_side_port::system.l2.cpu_side_port      1100168                       # Packet count per connected requestor and responder (bytes)
system.tol2bus.pkt_count::total               1101783                       # Packet count per connected requestor and responder (bytes)
system.tol2bus.pkt_size_system.cpu.icache.mem_side_port::system.l2.cpu_side_port        65472                       # Cumulative packet size per connected requestor and responder (bytes)
system.tol2bus.pkt_size_system.cpu.dcache.mem_side_port::system.l2.cpu_side_port     46786304                       # Cumulative packet size per connected requestor and responder (bytes)
system.tol2bus.pkt_size::total               46851776                       # Cumulative packet size per connected requestor and responder (bytes)
system.tol2bus.snoops                          358288                       # Total snoops (count)
system.tol2bus.snoopTraffic                  22880640                       # Total snoop traffic (bytes)
system.tol2bus.snoop_fanout::samples           725603                       # Request fanout histogram
system.tol2bus.snoop_fanout::mean            0.000230                       # Request fanout histogram
system.tol2bus.snoop_fanout::stdev           0.015169                       # Request fanout histogram
system.tol2bus.snoop_fanout::underflows             0      0.00%      0.00% # Request fanout histogram
system.tol2bus.snoop_fanout::0                 725436     99.98%     99.98% # Request fanout histogram
system.tol2bus.snoop_fanout::1                    167      0.02%    100.00% # Request fanout histogram
system.tol2bus.snoop_fanout::2                      0      0.00%    100.00% # Request fanout histogram
system.tol2bus.snoop_fanout::3                      0      0.00%    100.00% # Request fanout histogram
system.tol2bus.snoop_fanout::4                      0      0.00%    100.00% # Request fanout histogram
system.tol2bus.snoop_fanout::overflows              0      0.00%    100.00% # Request fanout histogram
system.tol2bus.snoop_fanout::min_value              0                       # Request fanout histogram
system.tol2bus.snoop_fanout::max_value              1                       # Request fanout histogram
system.tol2bus.snoop_fanout::total             725603                       # Request fanout histogram
system.tol2bus.power_state.pwrStateResidencyTicks::UNDEFINED  36434774500                       # Cumulative time (in ticks) in various power states
system.tol2bus.reqLayer0.occupancy          731978000                       # Layer occupancy (ticks)
system.tol2bus.reqLayer0.utilization              2.1                       # Layer utilization (%)
system.tol2bus.respLayer0.occupancy            888000                       # Layer occupancy (ticks)
system.tol2bus.respLayer0.utilization             0.0                       # Layer utilization (%)
system.tol2bus.respLayer1.occupancy         550084500                       # Layer occupancy (ticks)
system.tol2bus.respLayer1.utilization             1.6                       # Layer utilization (%)
system.voltage_domain.voltage                       1                       # Voltage in Volts

---------- End Simulation Statistics   ----------
