
---------- Begin Simulation Statistics ----------
final_tick                                 5029748000                       # Number of ticks from beginning of simulation (restored from checkpoints and never reset)
host_inst_rate                                 131412                       # Simulator instruction rate (inst/s)
host_mem_usage                                8737408                       # Number of bytes of host memory used
host_op_rate                                   248758                       # Simulator op (including micro ops) rate (op/s)
host_seconds                                    50.44                       # Real time elapsed on the host
host_tick_rate                               78892113                       # Simulator tick rate (ticks/s)
sim_freq                                 1000000000000                       # Frequency of simulated ticks
sim_insts                                     6628200                       # Number of instructions simulated
sim_ops                                      12546979                       # Number of ops (including micro ops) simulated
sim_seconds                                  0.003979                       # Number of seconds simulated
sim_ticks                                  3979200500                       # Number of ticks simulated
system.cpu.committedInsts                           0                       # Number of instructions committed
system.cpu.committedOps                             0                       # Number of ops (including micro ops) committed
system.cpu.idle_fraction                            0                       # Percentage of idle cycles
system.cpu.not_idle_fraction                        1                       # Percentage of non-idle cycles
system.cpu.numCycles                                0                       # number of cpu cycles simulated
system.cpu.numWorkItemsCompleted                    0                       # number of work items this cpu completed
system.cpu.numWorkItemsStarted                      0                       # number of work items this cpu started
system.cpu.num_busy_cycles                          0                       # Number of busy cycles
system.cpu.num_conditional_control_insts            0                       # number of instructions that are conditional controls
system.cpu.num_fp_alu_accesses                      0                       # Number of float alu accesses
system.cpu.num_fp_insts                             0                       # number of float instructions
system.cpu.num_fp_register_reads                    0                       # number of times the floating registers were read
system.cpu.num_fp_register_writes                   0                       # number of times the floating registers were written
system.cpu.num_func_calls                           0                       # number of times a function call or return occured
system.cpu.num_idle_cycles                          0                       # Number of idle cycles
system.cpu.num_int_alu_accesses                     0                       # Number of integer alu accesses
system.cpu.num_int_insts                            0                       # number of integer instructions
system.cpu.num_int_register_reads                   0                       # number of times the integer registers were read
system.cpu.num_int_register_writes                  0                       # number of times the integer registers were written
system.cpu.num_load_insts                           0                       # Number of load instructions
system.cpu.num_mem_refs                             0                       # number of memory refs
system.cpu.num_store_insts                          0                       # Number of store instructions
system.cpu.num_vec_alu_accesses                     0                       # Number of vector alu accesses
system.cpu.num_vec_insts                            0                       # number of vector instructions
system.cpu.num_vec_register_reads                   0                       # number of times the vector registers were read
system.cpu.num_vec_register_writes                  0                       # number of times the vector registers were written
system.cpu.op_class::No_OpClass                     0                       # Class of executed instruction
system.cpu.op_class::IntAlu                         0                       # Class of executed instruction
system.cpu.op_class::IntMult                        0                       # Class of executed instruction
system.cpu.op_class::IntDiv                         0                       # Class of executed instruction
system.cpu.op_class::FloatAdd                       0                       # Class of executed instruction
system.cpu.op_class::FloatCmp                       0                       # Class of executed instruction
system.cpu.op_class::FloatCvt                       0                       # Class of executed instruction
system.cpu.op_class::FloatMult                      0                       # Class of executed instruction
system.cpu.op_class::FloatMultAcc                   0                       # Class of executed instruction
system.cpu.op_class::FloatDiv                       0                       # Class of executed instruction
system.cpu.op_class::FloatMisc                      0                       # Class of executed instruction
system.cpu.op_class::FloatSqrt                      0                       # Class of executed instruction
system.cpu.op_class::SimdAdd                        0                       # Class of executed instruction
system.cpu.op_class::SimdAddAcc                     0                       # Class of executed instruction
system.cpu.op_class::SimdAlu                        0                       # Class of executed instruction
system.cpu.op_class::SimdCmp                        0                       # Class of executed instruction
system.cpu.op_class::SimdCvt                        0                       # Class of executed instruction
system.cpu.op_class::SimdMisc                       0                       # Class of executed instruction
system.cpu.op_class::SimdMult                       0                       # Class of executed instruction
system.cpu.op_class::SimdMultAcc                    0                       # Class of executed instruction
system.cpu.op_class::SimdShift                      0                       # Class of executed instruction
system.cpu.op_class::SimdShiftAcc                   0                       # Class of executed instruction
system.cpu.op_class::SimdDiv                        0                       # Class of executed instruction
system.cpu.op_class::SimdSqrt                       0                       # Class of executed instruction
system.cpu.op_class::SimdFloatAdd                   0                       # Class of executed instruction
system.cpu.op_class::SimdFloatAlu                   0                       # Class of executed instruction
system.cpu.op_class::SimdFloatCmp                   0                       # Class of executed instruction
system.cpu.op_class::SimdFloatCvt                   0                       # Class of executed instruction
system.cpu.op_class::SimdFloatDiv                   0                       # Class of executed instruction
system.cpu.op_class::SimdFloatMisc                  0                       # Class of executed instruction
system.cpu.op_class::SimdFloatMult                  0                       # Class of executed instruction
system.cpu.op_class::SimdFloatMultAcc               0                       # Class of executed instruction
system.cpu.op_class::SimdFloatSqrt                  0                       # Class of executed instruction
system.cpu.op_class::SimdReduceAdd                  0                       # Class of executed instruction
system.cpu.op_class::SimdReduceAlu                  0                       # Class of executed instruction
system.cpu.op_class::SimdReduceCmp                  0                       # Class of executed instruction
system.cpu.op_class::SimdFloatReduceAdd             0                       # Class of executed instruction
system.cpu.op_class::SimdFloatReduceCmp             0                       # Class of executed instruction
system.cpu.op_class::SimdAes                        0                       # Class of executed instruction
system.cpu.op_class::SimdAesMix                     0                       # Class of executed instruction
system.cpu.op_class::SimdSha1Hash                   0                       # Class of executed instruction
system.cpu.op_class::SimdSha1Hash2                  0                       # Class of executed instruction
system.cpu.op_class::SimdSha256Hash                 0                       # Class of executed instruction
system.cpu.op_class::SimdSha256Hash2                0                       # Class of executed instruction
system.cpu.op_class::SimdShaSigma2                  0                       # Class of executed instruction
system.cpu.op_class::SimdShaSigma3                  0                       # Class of executed instruction
system.cpu.op_class::SimdPredAlu                    0                       # Class of executed instruction
system.cpu.op_class::MemRead                        0                       # Class of executed instruction
system.cpu.op_class::MemWrite                       0                       # Class of executed instruction
system.cpu.op_class::FloatMemRead                   0                       # Class of executed instruction
system.cpu.op_class::FloatMemWrite                  0                       # Class of executed instruction
system.cpu.op_class::IprAccess                      0                       # Class of executed instruction
system.cpu.op_class::InstPrefetch                   0                       # Class of executed instruction
system.cpu.op_class::total                          0                       # Class of executed instruction
system.cpu.workload.numSyscalls                    44                       # Number of system calls
system.membus.snoop_filter.hit_multi_requests            0                       # Number of requests hitting in the snoop filter with multiple (>1) holders of the requested data.
system.membus.snoop_filter.hit_multi_snoops            0                       # Number of snoops hitting in the snoop filter with multiple (>1) holders of the requested data.
system.membus.snoop_filter.hit_single_requests        26765                       # Number of requests hitting in the snoop filter with a single holder of the requested data.
system.membus.snoop_filter.hit_single_snoops            0                       # Number of snoops hitting in the snoop filter with a single holder of the requested data.
system.membus.snoop_filter.tot_requests         55462                       # Total number of requests made to the snoop filter.
system.membus.snoop_filter.tot_snoops               0                       # Total number of snoops made to the snoop filter.
system.switch_cpus.cc_regfile_reads           7499616                       # number of cc regfile reads
system.switch_cpus.cc_regfile_writes          4540847                       # number of cc regfile writes
system.switch_cpus.committedInsts             5628199                       # Number of Instructions Simulated
system.switch_cpus.committedOps              10786153                       # Number of Ops (including micro ops) Simulated
system.switch_cpus.cpi                       1.414023                       # CPI: Cycles Per Instruction
system.switch_cpus.cpi_total                 1.414023                       # CPI: Total CPI of All Threads
system.switch_cpus.fp_regfile_reads            828169                       # number of floating regfile reads
system.switch_cpus.fp_regfile_writes           469602                       # number of floating regfile writes
system.switch_cpus.idleCycles                  571148                       # Total number of cycles that the CPU has spent unscheduled due to idling
system.switch_cpus.iew.branchMispredicts       213574                       # Number of branch mispredicts detected at execute
system.switch_cpus.iew.exec_branches          1409567                       # Number of branches executed
system.switch_cpus.iew.exec_nop                     0                       # number of nop insts executed
system.switch_cpus.iew.exec_rate             1.824690                       # Inst execution rate
system.switch_cpus.iew.exec_refs              2740175                       # number of memory reference insts executed
system.switch_cpus.iew.exec_stores             868096                       # Number of stores executed
system.switch_cpus.iew.exec_swp                     0                       # number of swp insts executed
system.switch_cpus.iew.iewBlockCycles         1430322                       # Number of cycles IEW is blocking
system.switch_cpus.iew.iewDispLoadInsts       2127299                       # Number of dispatched load instructions
system.switch_cpus.iew.iewDispNonSpecInsts         1270                       # Number of dispatched non-speculative instructions
system.switch_cpus.iew.iewDispSquashedInsts        30588                       # Number of squashed instructions skipped by dispatch
system.switch_cpus.iew.iewDispStoreInsts      1022529                       # Number of dispatched store instructions
system.switch_cpus.iew.iewDispatchedInsts     16769209                       # Number of instructions dispatched to IQ
system.switch_cpus.iew.iewExecLoadInsts       1872079                       # Number of load instructions executed
system.switch_cpus.iew.iewExecSquashedInsts       374738                       # Number of squashed instructions skipped in execute
system.switch_cpus.iew.iewExecutedInsts      14521616                       # Number of executed instructions
system.switch_cpus.iew.iewIQFullEvents          10620                       # Number of times the IQ has become full, causing a stall
system.switch_cpus.iew.iewIdleCycles                0                       # Number of cycles IEW is idle
system.switch_cpus.iew.iewLSQFullEvents        116122                       # Number of times the LSQ has become full, causing a stall
system.switch_cpus.iew.iewSquashCycles         167652                       # Number of cycles IEW is squashing
system.switch_cpus.iew.iewUnblockCycles        131024                       # Number of cycles IEW is unblocking
system.switch_cpus.iew.memOrderViolationEvents          973                       # Number of memory order violations
system.switch_cpus.iew.predictedNotTakenIncorrect       134965                       # Number of branches that were predicted not taken incorrectly
system.switch_cpus.iew.predictedTakenIncorrect        78609                       # Number of branches that were predicted taken incorrectly
system.switch_cpus.iew.wb_consumers          17617233                       # num instructions consuming a value
system.switch_cpus.iew.wb_count              14297808                       # cumulative count of insts written-back
system.switch_cpus.iew.wb_fanout             0.585033                       # average fanout of values written-back
system.switch_cpus.iew.wb_producers          10306663                       # num instructions producing a value
system.switch_cpus.iew.wb_rate               1.796568                       # insts written-back per cycle
system.switch_cpus.iew.wb_sent               14387101                       # cumulative count of insts sent to commit
system.switch_cpus.int_regfile_reads         20412028                       # number of integer regfile reads
system.switch_cpus.int_regfile_writes        11242446                       # number of integer regfile writes
system.switch_cpus.ipc                       0.707202                       # IPC: Instructions Per Cycle
system.switch_cpus.ipc_total                 0.707202                       # IPC: Total IPC of All Threads
system.switch_cpus.iq.FU_type_0::No_OpClass       543997      3.65%      3.65% # Type of FU issued
system.switch_cpus.iq.FU_type_0::IntAlu      11081078     74.39%     78.04% # Type of FU issued
system.switch_cpus.iq.FU_type_0::IntMult        12460      0.08%     78.12% # Type of FU issued
system.switch_cpus.iq.FU_type_0::IntDiv         30484      0.20%     78.33% # Type of FU issued
system.switch_cpus.iq.FU_type_0::FloatAdd        23918      0.16%     78.49% # Type of FU issued
system.switch_cpus.iq.FU_type_0::FloatCmp            0      0.00%     78.49% # Type of FU issued
system.switch_cpus.iq.FU_type_0::FloatCvt         1936      0.01%     78.50% # Type of FU issued
system.switch_cpus.iq.FU_type_0::FloatMult            0      0.00%     78.50% # Type of FU issued
system.switch_cpus.iq.FU_type_0::FloatMultAcc            0      0.00%     78.50% # Type of FU issued
system.switch_cpus.iq.FU_type_0::FloatDiv            0      0.00%     78.50% # Type of FU issued
system.switch_cpus.iq.FU_type_0::FloatMisc            0      0.00%     78.50% # Type of FU issued
system.switch_cpus.iq.FU_type_0::FloatSqrt            0      0.00%     78.50% # Type of FU issued
system.switch_cpus.iq.FU_type_0::SimdAdd        12219      0.08%     78.58% # Type of FU issued
system.switch_cpus.iq.FU_type_0::SimdAddAcc            0      0.00%     78.58% # Type of FU issued
system.switch_cpus.iq.FU_type_0::SimdAlu        99592      0.67%     79.25% # Type of FU issued
system.switch_cpus.iq.FU_type_0::SimdCmp         3944      0.03%     79.28% # Type of FU issued
system.switch_cpus.iq.FU_type_0::SimdCvt        94806      0.64%     79.92% # Type of FU issued
system.switch_cpus.iq.FU_type_0::SimdMisc       117157      0.79%     80.70% # Type of FU issued
system.switch_cpus.iq.FU_type_0::SimdMult            0      0.00%     80.70% # Type of FU issued
system.switch_cpus.iq.FU_type_0::SimdMultAcc            0      0.00%     80.70% # Type of FU issued
system.switch_cpus.iq.FU_type_0::SimdShift         8820      0.06%     80.76% # Type of FU issued
system.switch_cpus.iq.FU_type_0::SimdShiftAcc            0      0.00%     80.76% # Type of FU issued
system.switch_cpus.iq.FU_type_0::SimdDiv            0      0.00%     80.76% # Type of FU issued
system.switch_cpus.iq.FU_type_0::SimdSqrt            0      0.00%     80.76% # Type of FU issued
system.switch_cpus.iq.FU_type_0::SimdFloatAdd           15      0.00%     80.76% # Type of FU issued
system.switch_cpus.iq.FU_type_0::SimdFloatAlu            0      0.00%     80.76% # Type of FU issued
system.switch_cpus.iq.FU_type_0::SimdFloatCmp            0      0.00%     80.76% # Type of FU issued
system.switch_cpus.iq.FU_type_0::SimdFloatCvt           60      0.00%     80.76% # Type of FU issued
system.switch_cpus.iq.FU_type_0::SimdFloatDiv           32      0.00%     80.76% # Type of FU issued
system.switch_cpus.iq.FU_type_0::SimdFloatMisc            0      0.00%     80.76% # Type of FU issued
system.switch_cpus.iq.FU_type_0::SimdFloatMult           15      0.00%     80.76% # Type of FU issued
system.switch_cpus.iq.FU_type_0::SimdFloatMultAcc            0      0.00%     80.76% # Type of FU issued
system.switch_cpus.iq.FU_type_0::SimdFloatSqrt            0      0.00%     80.76% # Type of FU issued
system.switch_cpus.iq.FU_type_0::SimdReduceAdd            0      0.00%     80.76% # Type of FU issued
system.switch_cpus.iq.FU_type_0::SimdReduceAlu            0      0.00%     80.76% # Type of FU issued
system.switch_cpus.iq.FU_type_0::SimdReduceCmp            0      0.00%     80.76% # Type of FU issued
system.switch_cpus.iq.FU_type_0::SimdFloatReduceAdd            0      0.00%     80.76% # Type of FU issued
system.switch_cpus.iq.FU_type_0::SimdFloatReduceCmp            0      0.00%     80.76% # Type of FU issued
system.switch_cpus.iq.FU_type_0::SimdAes            0      0.00%     80.76% # Type of FU issued
system.switch_cpus.iq.FU_type_0::SimdAesMix            0      0.00%     80.76% # Type of FU issued
system.switch_cpus.iq.FU_type_0::SimdSha1Hash            0      0.00%     80.76% # Type of FU issued
system.switch_cpus.iq.FU_type_0::SimdSha1Hash2            0      0.00%     80.76% # Type of FU issued
system.switch_cpus.iq.FU_type_0::SimdSha256Hash            0      0.00%     80.76% # Type of FU issued
system.switch_cpus.iq.FU_type_0::SimdSha256Hash2            0      0.00%     80.76% # Type of FU issued
system.switch_cpus.iq.FU_type_0::SimdShaSigma2            0      0.00%     80.76% # Type of FU issued
system.switch_cpus.iq.FU_type_0::SimdShaSigma3            0      0.00%     80.76% # Type of FU issued
system.switch_cpus.iq.FU_type_0::SimdPredAlu            0      0.00%     80.76% # Type of FU issued
system.switch_cpus.iq.FU_type_0::MemRead      1771743     11.89%     92.66% # Type of FU issued
system.switch_cpus.iq.FU_type_0::MemWrite       835208      5.61%     98.26% # Type of FU issued
system.switch_cpus.iq.FU_type_0::FloatMemRead       193567      1.30%     99.56% # Type of FU issued
system.switch_cpus.iq.FU_type_0::FloatMemWrite        65303      0.44%    100.00% # Type of FU issued
system.switch_cpus.iq.FU_type_0::IprAccess            0      0.00%    100.00% # Type of FU issued
system.switch_cpus.iq.FU_type_0::InstPrefetch            0      0.00%    100.00% # Type of FU issued
system.switch_cpus.iq.FU_type_0::total       14896354                       # Type of FU issued
system.switch_cpus.iq.fp_alu_accesses          683539                       # Number of floating point alu accesses
system.switch_cpus.iq.fp_inst_queue_reads      1346516                       # Number of floating instruction queue reads
system.switch_cpus.iq.fp_inst_queue_wakeup_accesses       579806                       # Number of floating instruction queue wakeup accesses
system.switch_cpus.iq.fp_inst_queue_writes      1198974                       # Number of floating instruction queue writes
system.switch_cpus.iq.fu_busy_cnt              237093                       # FU busy when requested
system.switch_cpus.iq.fu_busy_rate           0.015916                       # FU busy rate (busy events/executed inst)
system.switch_cpus.iq.fu_full::No_OpClass            0      0.00%      0.00% # attempts to use FU when none available
system.switch_cpus.iq.fu_full::IntAlu          177600     74.91%     74.91% # attempts to use FU when none available
system.switch_cpus.iq.fu_full::IntMult              0      0.00%     74.91% # attempts to use FU when none available
system.switch_cpus.iq.fu_full::IntDiv               0      0.00%     74.91% # attempts to use FU when none available
system.switch_cpus.iq.fu_full::FloatAdd             0      0.00%     74.91% # attempts to use FU when none available
system.switch_cpus.iq.fu_full::FloatCmp             0      0.00%     74.91% # attempts to use FU when none available
system.switch_cpus.iq.fu_full::FloatCvt             1      0.00%     74.91% # attempts to use FU when none available
system.switch_cpus.iq.fu_full::FloatMult            0      0.00%     74.91% # attempts to use FU when none available
system.switch_cpus.iq.fu_full::FloatMultAcc            0      0.00%     74.91% # attempts to use FU when none available
system.switch_cpus.iq.fu_full::FloatDiv             0      0.00%     74.91% # attempts to use FU when none available
system.switch_cpus.iq.fu_full::FloatMisc            0      0.00%     74.91% # attempts to use FU when none available
system.switch_cpus.iq.fu_full::FloatSqrt            0      0.00%     74.91% # attempts to use FU when none available
system.switch_cpus.iq.fu_full::SimdAdd              1      0.00%     74.91% # attempts to use FU when none available
system.switch_cpus.iq.fu_full::SimdAddAcc            0      0.00%     74.91% # attempts to use FU when none available
system.switch_cpus.iq.fu_full::SimdAlu           4291      1.81%     76.72% # attempts to use FU when none available
system.switch_cpus.iq.fu_full::SimdCmp             12      0.01%     76.72% # attempts to use FU when none available
system.switch_cpus.iq.fu_full::SimdCvt           3390      1.43%     78.15% # attempts to use FU when none available
system.switch_cpus.iq.fu_full::SimdMisc          2897      1.22%     79.37% # attempts to use FU when none available
system.switch_cpus.iq.fu_full::SimdMult             0      0.00%     79.37% # attempts to use FU when none available
system.switch_cpus.iq.fu_full::SimdMultAcc            0      0.00%     79.37% # attempts to use FU when none available
system.switch_cpus.iq.fu_full::SimdShift          327      0.14%     79.51% # attempts to use FU when none available
system.switch_cpus.iq.fu_full::SimdShiftAcc            0      0.00%     79.51% # attempts to use FU when none available
system.switch_cpus.iq.fu_full::SimdDiv              0      0.00%     79.51% # attempts to use FU when none available
system.switch_cpus.iq.fu_full::SimdSqrt             0      0.00%     79.51% # attempts to use FU when none available
system.switch_cpus.iq.fu_full::SimdFloatAdd            0      0.00%     79.51% # attempts to use FU when none available
system.switch_cpus.iq.fu_full::SimdFloatAlu            0      0.00%     79.51% # attempts to use FU when none available
system.switch_cpus.iq.fu_full::SimdFloatCmp            0      0.00%     79.51% # attempts to use FU when none available
system.switch_cpus.iq.fu_full::SimdFloatCvt            0      0.00%     79.51% # attempts to use FU when none available
system.switch_cpus.iq.fu_full::SimdFloatDiv            0      0.00%     79.51% # attempts to use FU when none available
system.switch_cpus.iq.fu_full::SimdFloatMisc            0      0.00%     79.51% # attempts to use FU when none available
system.switch_cpus.iq.fu_full::SimdFloatMult            0      0.00%     79.51% # attempts to use FU when none available
system.switch_cpus.iq.fu_full::SimdFloatMultAcc            0      0.00%     79.51% # attempts to use FU when none available
system.switch_cpus.iq.fu_full::SimdFloatSqrt            0      0.00%     79.51% # attempts to use FU when none available
system.switch_cpus.iq.fu_full::SimdReduceAdd            0      0.00%     79.51% # attempts to use FU when none available
system.switch_cpus.iq.fu_full::SimdReduceAlu            0      0.00%     79.51% # attempts to use FU when none available
system.switch_cpus.iq.fu_full::SimdReduceCmp            0      0.00%     79.51% # attempts to use FU when none available
system.switch_cpus.iq.fu_full::SimdFloatReduceAdd            0      0.00%     79.51% # attempts to use FU when none available
system.switch_cpus.iq.fu_full::SimdFloatReduceCmp            0      0.00%     79.51% # attempts to use FU when none available
system.switch_cpus.iq.fu_full::SimdAes              0      0.00%     79.51% # attempts to use FU when none available
system.switch_cpus.iq.fu_full::SimdAesMix            0      0.00%     79.51% # attempts to use FU when none available
system.switch_cpus.iq.fu_full::SimdSha1Hash            0      0.00%     79.51% # attempts to use FU when none available
system.switch_cpus.iq.fu_full::SimdSha1Hash2            0      0.00%     79.51% # attempts to use FU when none available
system.switch_cpus.iq.fu_full::SimdSha256Hash            0      0.00%     79.51% # attempts to use FU when none available
system.switch_cpus.iq.fu_full::SimdSha256Hash2            0      0.00%     79.51% # attempts to use FU when none available
system.switch_cpus.iq.fu_full::SimdShaSigma2            0      0.00%     79.51% # attempts to use FU when none available
system.switch_cpus.iq.fu_full::SimdShaSigma3            0      0.00%     79.51% # attempts to use FU when none available
system.switch_cpus.iq.fu_full::SimdPredAlu            0      0.00%     79.51% # attempts to use FU when none available
system.switch_cpus.iq.fu_full::MemRead          16087      6.79%     86.30% # attempts to use FU when none available
system.switch_cpus.iq.fu_full::MemWrite         12789      5.39%     91.69% # attempts to use FU when none available
system.switch_cpus.iq.fu_full::FloatMemRead        15259      6.44%     98.13% # attempts to use FU when none available
system.switch_cpus.iq.fu_full::FloatMemWrite         4439      1.87%    100.00% # attempts to use FU when none available
system.switch_cpus.iq.fu_full::IprAccess            0      0.00%    100.00% # attempts to use FU when none available
system.switch_cpus.iq.fu_full::InstPrefetch            0      0.00%    100.00% # attempts to use FU when none available
system.switch_cpus.iq.int_alu_accesses       13905911                       # Number of integer alu accesses
system.switch_cpus.iq.int_inst_queue_reads     36110262                       # Number of integer instruction queue reads
system.switch_cpus.iq.int_inst_queue_wakeup_accesses     13718002                       # Number of integer instruction queue wakeup accesses
system.switch_cpus.iq.int_inst_queue_writes     21554156                       # Number of integer instruction queue writes
system.switch_cpus.iq.iqInstsAdded           16766894                       # Number of instructions added to the IQ (excludes non-spec)
system.switch_cpus.iq.iqInstsIssued          14896354                       # Number of instructions issued
system.switch_cpus.iq.iqNonSpecInstsAdded         2315                       # Number of non-speculative instructions added to the IQ
system.switch_cpus.iq.iqSquashedInstsExamined      5983050                       # Number of squashed instructions iterated over during squash; mainly for profiling
system.switch_cpus.iq.iqSquashedInstsIssued        39724                       # Number of squashed instructions issued
system.switch_cpus.iq.iqSquashedNonSpecRemoved         1161                       # Number of squashed non-spec instructions that were removed
system.switch_cpus.iq.iqSquashedOperandsExamined      7950464                       # Number of squashed operands that are examined and possibly removed from graph
system.switch_cpus.iq.issued_per_cycle::samples      7387253                       # Number of insts issued each cycle
system.switch_cpus.iq.issued_per_cycle::mean     2.016494                       # Number of insts issued each cycle
system.switch_cpus.iq.issued_per_cycle::stdev     2.438777                       # Number of insts issued each cycle
system.switch_cpus.iq.issued_per_cycle::underflows            0      0.00%      0.00% # Number of insts issued each cycle
system.switch_cpus.iq.issued_per_cycle::0      3580421     48.47%     48.47% # Number of insts issued each cycle
system.switch_cpus.iq.issued_per_cycle::1       522937      7.08%     55.55% # Number of insts issued each cycle
system.switch_cpus.iq.issued_per_cycle::2       608478      8.24%     63.78% # Number of insts issued each cycle
system.switch_cpus.iq.issued_per_cycle::3       617270      8.36%     72.14% # Number of insts issued each cycle
system.switch_cpus.iq.issued_per_cycle::4       587247      7.95%     80.09% # Number of insts issued each cycle
system.switch_cpus.iq.issued_per_cycle::5       520845      7.05%     87.14% # Number of insts issued each cycle
system.switch_cpus.iq.issued_per_cycle::6       488608      6.61%     93.75% # Number of insts issued each cycle
system.switch_cpus.iq.issued_per_cycle::7       271786      3.68%     97.43% # Number of insts issued each cycle
system.switch_cpus.iq.issued_per_cycle::8       189661      2.57%    100.00% # Number of insts issued each cycle
system.switch_cpus.iq.issued_per_cycle::overflows            0      0.00%    100.00% # Number of insts issued each cycle
system.switch_cpus.iq.issued_per_cycle::min_value            0                       # Number of insts issued each cycle
system.switch_cpus.iq.issued_per_cycle::max_value            8                       # Number of insts issued each cycle
system.switch_cpus.iq.issued_per_cycle::total      7387253                       # Number of insts issued each cycle
system.switch_cpus.iq.rate                   1.871777                       # Inst issue rate
system.switch_cpus.iq.vec_alu_accesses              0                       # Number of vector alu accesses
system.switch_cpus.iq.vec_inst_queue_reads            0                       # Number of vector instruction queue reads
system.switch_cpus.iq.vec_inst_queue_wakeup_accesses            0                       # Number of vector instruction queue wakeup accesses
system.switch_cpus.iq.vec_inst_queue_writes            0                       # Number of vector instruction queue writes
system.switch_cpus.memDep0.conflictingLoads        65853                       # Number of conflicting loads.
system.switch_cpus.memDep0.conflictingStores        71292                       # Number of conflicting stores.
system.switch_cpus.memDep0.insertedLoads      2127299                       # Number of loads inserted to the mem dependence unit.
system.switch_cpus.memDep0.insertedStores      1022529                       # Number of stores inserted to the mem dependence unit.
system.switch_cpus.misc_regfile_reads         5841735                       # number of misc regfile reads
system.switch_cpus.misc_regfile_writes            999                       # number of misc regfile writes
system.switch_cpus.numCycles                  7958401                       # number of cpu cycles simulated
system.switch_cpus.numWorkItemsCompleted            0                       # number of work items this cpu completed
system.switch_cpus.numWorkItemsStarted              0                       # number of work items this cpu started
system.switch_cpus.timesIdled                    8361                       # Number of times that the entire CPU went into an idle state and unscheduled itself
system.tol2bus.snoop_filter.hit_multi_requests          131                       # Number of requests hitting in the snoop filter with multiple (>1) holders of the requested data.
system.tol2bus.snoop_filter.hit_multi_snoops            0                       # Number of snoops hitting in the snoop filter with multiple (>1) holders of the requested data.
system.tol2bus.snoop_filter.hit_single_requests        57069                       # Number of requests hitting in the snoop filter with a single holder of the requested data.
system.tol2bus.snoop_filter.hit_single_snoops         1215                       # Number of snoops hitting in the snoop filter with a single holder of the requested data.
system.tol2bus.snoop_filter.tot_requests       114500                       # Total number of requests made to the snoop filter.
system.tol2bus.snoop_filter.tot_snoops           1215                       # Total number of snoops made to the snoop filter.
system.clk_domain.clock                          1000                       # Clock period in ticks
system.cpu.branchPred.lookups                       0                       # Number of BP lookups
system.cpu.branchPred.condPredicted                 0                       # Number of conditional branches predicted
system.cpu.branchPred.condIncorrect                 0                       # Number of conditional branches incorrect
system.cpu.branchPred.BTBLookups                    0                       # Number of BTB lookups
system.cpu.branchPred.BTBHits                       0                       # Number of BTB hits
system.cpu.branchPred.BTBHitPct                   nan                       # BTB Hit Percentage
system.cpu.branchPred.RASUsed                       0                       # Number of times the RAS was used to get a target.
system.cpu.branchPred.RASIncorrect                  0                       # Number of incorrect RAS predictions.
system.cpu.branchPred.indirectLookups               0                       # Number of indirect predictor lookups.
system.cpu.branchPred.indirectHits                  0                       # Number of indirect target hits.
system.cpu.branchPred.indirectMisses                0                       # Number of indirect misses.
system.cpu.branchPred.indirectMispredicted            0                       # Number of mispredicted indirect branches.
system.cpu.dcache.demand_hits::.switch_cpus.data      2294044                       # number of demand (read+write) hits
system.cpu.dcache.demand_hits::total          2294044                       # number of demand (read+write) hits
system.cpu.dcache.overall_hits::.switch_cpus.data      2297127                       # number of overall hits
system.cpu.dcache.overall_hits::total         2297127                       # number of overall hits
system.cpu.dcache.demand_misses::.switch_cpus.data        98680                       # number of demand (read+write) misses
system.cpu.dcache.demand_misses::total          98680                       # number of demand (read+write) misses
system.cpu.dcache.overall_misses::.switch_cpus.data        98749                       # number of overall misses
system.cpu.dcache.overall_misses::total         98749                       # number of overall misses
system.cpu.dcache.demand_miss_latency::.switch_cpus.data   5933203999                       # number of demand (read+write) miss cycles
system.cpu.dcache.demand_miss_latency::total   5933203999                       # number of demand (read+write) miss cycles
system.cpu.dcache.overall_miss_latency::.switch_cpus.data   5933203999                       # number of overall miss cycles
system.cpu.dcache.overall_miss_latency::total   5933203999                       # number of overall miss cycles
system.cpu.dcache.demand_accesses::.switch_cpus.data      2392724                       # number of demand (read+write) accesses
system.cpu.dcache.demand_accesses::total      2392724                       # number of demand (read+write) accesses
system.cpu.dcache.overall_accesses::.switch_cpus.data      2395876                       # number of overall (read+write) accesses
system.cpu.dcache.overall_accesses::total      2395876                       # number of overall (read+write) accesses
system.cpu.dcache.demand_miss_rate::.switch_cpus.data     0.041242                       # miss rate for demand accesses
system.cpu.dcache.demand_miss_rate::total     0.041242                       # miss rate for demand accesses
system.cpu.dcache.overall_miss_rate::.switch_cpus.data     0.041216                       # miss rate for overall accesses
system.cpu.dcache.overall_miss_rate::total     0.041216                       # miss rate for overall accesses
system.cpu.dcache.demand_avg_miss_latency::.switch_cpus.data 60125.699220                       # average overall miss latency
system.cpu.dcache.demand_avg_miss_latency::total 60125.699220                       # average overall miss latency
system.cpu.dcache.overall_avg_miss_latency::.switch_cpus.data 60083.686913                       # average overall miss latency
system.cpu.dcache.overall_avg_miss_latency::total 60083.686913                       # average overall miss latency
system.cpu.dcache.blocked_cycles::no_mshrs       191444                       # number of cycles access was blocked
system.cpu.dcache.blocked_cycles::no_targets          780                       # number of cycles access was blocked
system.cpu.dcache.blocked::no_mshrs              2831                       # number of cycles access was blocked
system.cpu.dcache.blocked::no_targets               4                       # number of cycles access was blocked
system.cpu.dcache.avg_blocked_cycles::no_mshrs    67.624161                       # average number of cycles each access was blocked
system.cpu.dcache.avg_blocked_cycles::no_targets          195                       # average number of cycles each access was blocked
system.cpu.dcache.writebacks::.writebacks        13987                       # number of writebacks
system.cpu.dcache.writebacks::total             13987                       # number of writebacks
system.cpu.dcache.demand_mshr_hits::.switch_cpus.data        66247                       # number of demand (read+write) MSHR hits
system.cpu.dcache.demand_mshr_hits::total        66247                       # number of demand (read+write) MSHR hits
system.cpu.dcache.overall_mshr_hits::.switch_cpus.data        66247                       # number of overall MSHR hits
system.cpu.dcache.overall_mshr_hits::total        66247                       # number of overall MSHR hits
system.cpu.dcache.demand_mshr_misses::.switch_cpus.data        32433                       # number of demand (read+write) MSHR misses
system.cpu.dcache.demand_mshr_misses::total        32433                       # number of demand (read+write) MSHR misses
system.cpu.dcache.overall_mshr_misses::.switch_cpus.data        32458                       # number of overall MSHR misses
system.cpu.dcache.overall_mshr_misses::total        32458                       # number of overall MSHR misses
system.cpu.dcache.demand_mshr_miss_latency::.switch_cpus.data   1922322999                       # number of demand (read+write) MSHR miss cycles
system.cpu.dcache.demand_mshr_miss_latency::total   1922322999                       # number of demand (read+write) MSHR miss cycles
system.cpu.dcache.overall_mshr_miss_latency::.switch_cpus.data   1923653499                       # number of overall MSHR miss cycles
system.cpu.dcache.overall_mshr_miss_latency::total   1923653499                       # number of overall MSHR miss cycles
system.cpu.dcache.demand_mshr_miss_rate::.switch_cpus.data     0.013555                       # mshr miss rate for demand accesses
system.cpu.dcache.demand_mshr_miss_rate::total     0.013555                       # mshr miss rate for demand accesses
system.cpu.dcache.overall_mshr_miss_rate::.switch_cpus.data     0.013547                       # mshr miss rate for overall accesses
system.cpu.dcache.overall_mshr_miss_rate::total     0.013547                       # mshr miss rate for overall accesses
system.cpu.dcache.demand_avg_mshr_miss_latency::.switch_cpus.data 59270.588567                       # average overall mshr miss latency
system.cpu.dcache.demand_avg_mshr_miss_latency::total 59270.588567                       # average overall mshr miss latency
system.cpu.dcache.overall_avg_mshr_miss_latency::.switch_cpus.data 59265.928246                       # average overall mshr miss latency
system.cpu.dcache.overall_avg_mshr_miss_latency::total 59265.928246                       # average overall mshr miss latency
system.cpu.dcache.replacements                  32433                       # number of replacements
system.cpu.dcache.ReadReq_hits::.switch_cpus.data      1613854                       # number of ReadReq hits
system.cpu.dcache.ReadReq_hits::total         1613854                       # number of ReadReq hits
system.cpu.dcache.ReadReq_misses::.switch_cpus.data        90762                       # number of ReadReq misses
system.cpu.dcache.ReadReq_misses::total         90762                       # number of ReadReq misses
system.cpu.dcache.ReadReq_miss_latency::.switch_cpus.data   5373454500                       # number of ReadReq miss cycles
system.cpu.dcache.ReadReq_miss_latency::total   5373454500                       # number of ReadReq miss cycles
system.cpu.dcache.ReadReq_accesses::.switch_cpus.data      1704616                       # number of ReadReq accesses(hits+misses)
system.cpu.dcache.ReadReq_accesses::total      1704616                       # number of ReadReq accesses(hits+misses)
system.cpu.dcache.ReadReq_miss_rate::.switch_cpus.data     0.053245                       # miss rate for ReadReq accesses
system.cpu.dcache.ReadReq_miss_rate::total     0.053245                       # miss rate for ReadReq accesses
system.cpu.dcache.ReadReq_avg_miss_latency::.switch_cpus.data 59203.791234                       # average ReadReq miss latency
system.cpu.dcache.ReadReq_avg_miss_latency::total 59203.791234                       # average ReadReq miss latency
system.cpu.dcache.ReadReq_mshr_hits::.switch_cpus.data        66234                       # number of ReadReq MSHR hits
system.cpu.dcache.ReadReq_mshr_hits::total        66234                       # number of ReadReq MSHR hits
system.cpu.dcache.ReadReq_mshr_misses::.switch_cpus.data        24528                       # number of ReadReq MSHR misses
system.cpu.dcache.ReadReq_mshr_misses::total        24528                       # number of ReadReq MSHR misses
system.cpu.dcache.ReadReq_mshr_miss_latency::.switch_cpus.data   1371006500                       # number of ReadReq MSHR miss cycles
system.cpu.dcache.ReadReq_mshr_miss_latency::total   1371006500                       # number of ReadReq MSHR miss cycles
system.cpu.dcache.ReadReq_mshr_miss_rate::.switch_cpus.data     0.014389                       # mshr miss rate for ReadReq accesses
system.cpu.dcache.ReadReq_mshr_miss_rate::total     0.014389                       # mshr miss rate for ReadReq accesses
system.cpu.dcache.ReadReq_avg_mshr_miss_latency::.switch_cpus.data 55895.568330                       # average ReadReq mshr miss latency
system.cpu.dcache.ReadReq_avg_mshr_miss_latency::total 55895.568330                       # average ReadReq mshr miss latency
system.cpu.dcache.WriteReq_hits::.switch_cpus.data       680190                       # number of WriteReq hits
system.cpu.dcache.WriteReq_hits::total         680190                       # number of WriteReq hits
system.cpu.dcache.WriteReq_misses::.switch_cpus.data         7918                       # number of WriteReq misses
system.cpu.dcache.WriteReq_misses::total         7918                       # number of WriteReq misses
system.cpu.dcache.WriteReq_miss_latency::.switch_cpus.data    559749499                       # number of WriteReq miss cycles
system.cpu.dcache.WriteReq_miss_latency::total    559749499                       # number of WriteReq miss cycles
system.cpu.dcache.WriteReq_accesses::.switch_cpus.data       688108                       # number of WriteReq accesses(hits+misses)
system.cpu.dcache.WriteReq_accesses::total       688108                       # number of WriteReq accesses(hits+misses)
system.cpu.dcache.WriteReq_miss_rate::.switch_cpus.data     0.011507                       # miss rate for WriteReq accesses
system.cpu.dcache.WriteReq_miss_rate::total     0.011507                       # miss rate for WriteReq accesses
system.cpu.dcache.WriteReq_avg_miss_latency::.switch_cpus.data 70693.293635                       # average WriteReq miss latency
system.cpu.dcache.WriteReq_avg_miss_latency::total 70693.293635                       # average WriteReq miss latency
system.cpu.dcache.WriteReq_mshr_hits::.switch_cpus.data           13                       # number of WriteReq MSHR hits
system.cpu.dcache.WriteReq_mshr_hits::total           13                       # number of WriteReq MSHR hits
system.cpu.dcache.WriteReq_mshr_misses::.switch_cpus.data         7905                       # number of WriteReq MSHR misses
system.cpu.dcache.WriteReq_mshr_misses::total         7905                       # number of WriteReq MSHR misses
system.cpu.dcache.WriteReq_mshr_miss_latency::.switch_cpus.data    551316499                       # number of WriteReq MSHR miss cycles
system.cpu.dcache.WriteReq_mshr_miss_latency::total    551316499                       # number of WriteReq MSHR miss cycles
system.cpu.dcache.WriteReq_mshr_miss_rate::.switch_cpus.data     0.011488                       # mshr miss rate for WriteReq accesses
system.cpu.dcache.WriteReq_mshr_miss_rate::total     0.011488                       # mshr miss rate for WriteReq accesses
system.cpu.dcache.WriteReq_avg_mshr_miss_latency::.switch_cpus.data 69742.757622                       # average WriteReq mshr miss latency
system.cpu.dcache.WriteReq_avg_mshr_miss_latency::total 69742.757622                       # average WriteReq mshr miss latency
system.cpu.dcache.SoftPFReq_hits::.switch_cpus.data         3083                       # number of SoftPFReq hits
system.cpu.dcache.SoftPFReq_hits::total          3083                       # number of SoftPFReq hits
system.cpu.dcache.SoftPFReq_misses::.switch_cpus.data           69                       # number of SoftPFReq misses
system.cpu.dcache.SoftPFReq_misses::total           69                       # number of SoftPFReq misses
system.cpu.dcache.SoftPFReq_accesses::.switch_cpus.data         3152                       # number of SoftPFReq accesses(hits+misses)
system.cpu.dcache.SoftPFReq_accesses::total         3152                       # number of SoftPFReq accesses(hits+misses)
system.cpu.dcache.SoftPFReq_miss_rate::.switch_cpus.data     0.021891                       # miss rate for SoftPFReq accesses
system.cpu.dcache.SoftPFReq_miss_rate::total     0.021891                       # miss rate for SoftPFReq accesses
system.cpu.dcache.SoftPFReq_mshr_misses::.switch_cpus.data           25                       # number of SoftPFReq MSHR misses
system.cpu.dcache.SoftPFReq_mshr_misses::total           25                       # number of SoftPFReq MSHR misses
system.cpu.dcache.SoftPFReq_mshr_miss_latency::.switch_cpus.data      1330500                       # number of SoftPFReq MSHR miss cycles
system.cpu.dcache.SoftPFReq_mshr_miss_latency::total      1330500                       # number of SoftPFReq MSHR miss cycles
system.cpu.dcache.SoftPFReq_mshr_miss_rate::.switch_cpus.data     0.007931                       # mshr miss rate for SoftPFReq accesses
system.cpu.dcache.SoftPFReq_mshr_miss_rate::total     0.007931                       # mshr miss rate for SoftPFReq accesses
system.cpu.dcache.SoftPFReq_avg_mshr_miss_latency::.switch_cpus.data        53220                       # average SoftPFReq mshr miss latency
system.cpu.dcache.SoftPFReq_avg_mshr_miss_latency::total        53220                       # average SoftPFReq mshr miss latency
system.cpu.dcache.power_state.pwrStateResidencyTicks::UNDEFINED   5029748000                       # Cumulative time (in ticks) in various power states
system.cpu.dcache.tags.tagsinuse                 1024                       # Cycle average of tags in use
system.cpu.dcache.tags.total_refs             2544801                       # Total number of references to valid blocks.
system.cpu.dcache.tags.sampled_refs             33457                       # Sample count of references to valid blocks.
system.cpu.dcache.tags.avg_refs             76.061841                       # Average number of references to valid blocks.
system.cpu.dcache.tags.warmup_cycle                 0                       # Cycle when the warmup percentage was hit.
system.cpu.dcache.tags.occ_blocks::.cpu.data    24.891840                       # Average occupied blocks per requestor
system.cpu.dcache.tags.occ_blocks::.switch_cpus.data   999.108160                       # Average occupied blocks per requestor
system.cpu.dcache.tags.occ_percent::.cpu.data     0.024308                       # Average percentage of cache occupancy
system.cpu.dcache.tags.occ_percent::.switch_cpus.data     0.975692                       # Average percentage of cache occupancy
system.cpu.dcache.tags.occ_percent::total            1                       # Average percentage of cache occupancy
system.cpu.dcache.tags.occ_task_id_blocks::1024         1024                       # Occupied blocks per task id
system.cpu.dcache.tags.age_task_id_blocks_1024::0           83                       # Occupied blocks per task id
system.cpu.dcache.tags.age_task_id_blocks_1024::1          793                       # Occupied blocks per task id
system.cpu.dcache.tags.age_task_id_blocks_1024::2          144                       # Occupied blocks per task id
system.cpu.dcache.tags.age_task_id_blocks_1024::3            4                       # Occupied blocks per task id
system.cpu.dcache.tags.occ_task_id_percent::1024            1                       # Percentage of cache occupancy per task id
system.cpu.dcache.tags.tag_accesses           4824185                       # Number of tag accesses
system.cpu.dcache.tags.data_accesses          4824185                       # Number of data accesses
system.cpu.dcache.tags.power_state.pwrStateResidencyTicks::UNDEFINED   5029748000                       # Cumulative time (in ticks) in various power states
system.cpu.dtb.rdAccesses                           0                       # TLB accesses on read requests
system.cpu.dtb.wrAccesses                           0                       # TLB accesses on write requests
system.cpu.dtb.rdMisses                             0                       # TLB misses on read requests
system.cpu.dtb.wrMisses                             0                       # TLB misses on write requests
system.cpu.dtb.walker.power_state.pwrStateResidencyTicks::UNDEFINED   5029748000                       # Cumulative time (in ticks) in various power states
system.cpu.dtb_walker_cache.blocked_cycles::no_mshrs            0                       # number of cycles access was blocked
system.cpu.dtb_walker_cache.blocked_cycles::no_targets            0                       # number of cycles access was blocked
system.cpu.dtb_walker_cache.blocked::no_mshrs            0                       # number of cycles access was blocked
system.cpu.dtb_walker_cache.blocked::no_targets            0                       # number of cycles access was blocked
system.cpu.dtb_walker_cache.avg_blocked_cycles::no_mshrs          nan                       # average number of cycles each access was blocked
system.cpu.dtb_walker_cache.avg_blocked_cycles::no_targets          nan                       # average number of cycles each access was blocked
system.cpu.dtb_walker_cache.replacements            0                       # number of replacements
system.cpu.dtb_walker_cache.power_state.pwrStateResidencyTicks::UNDEFINED   5029748000                       # Cumulative time (in ticks) in various power states
system.cpu.dtb_walker_cache.tags.tagsinuse            0                       # Cycle average of tags in use
system.cpu.dtb_walker_cache.tags.total_refs            0                       # Total number of references to valid blocks.
system.cpu.dtb_walker_cache.tags.sampled_refs            0                       # Sample count of references to valid blocks.
system.cpu.dtb_walker_cache.tags.avg_refs          nan                       # Average number of references to valid blocks.
system.cpu.dtb_walker_cache.tags.warmup_cycle            0                       # Cycle when the warmup percentage was hit.
system.cpu.dtb_walker_cache.tags.tag_accesses            0                       # Number of tag accesses
system.cpu.dtb_walker_cache.tags.data_accesses            0                       # Number of data accesses
system.cpu.dtb_walker_cache.tags.power_state.pwrStateResidencyTicks::UNDEFINED   5029748000                       # Cumulative time (in ticks) in various power states
system.cpu.icache.demand_hits::.switch_cpus.inst      1440619                       # number of demand (read+write) hits
system.cpu.icache.demand_hits::total          1440619                       # number of demand (read+write) hits
system.cpu.icache.overall_hits::.switch_cpus.inst      1440619                       # number of overall hits
system.cpu.icache.overall_hits::total         1440619                       # number of overall hits
system.cpu.icache.demand_misses::.switch_cpus.inst        28939                       # number of demand (read+write) misses
system.cpu.icache.demand_misses::total          28939                       # number of demand (read+write) misses
system.cpu.icache.overall_misses::.switch_cpus.inst        28939                       # number of overall misses
system.cpu.icache.overall_misses::total         28939                       # number of overall misses
system.cpu.icache.demand_miss_latency::.switch_cpus.inst    997763498                       # number of demand (read+write) miss cycles
system.cpu.icache.demand_miss_latency::total    997763498                       # number of demand (read+write) miss cycles
system.cpu.icache.overall_miss_latency::.switch_cpus.inst    997763498                       # number of overall miss cycles
system.cpu.icache.overall_miss_latency::total    997763498                       # number of overall miss cycles
system.cpu.icache.demand_accesses::.switch_cpus.inst      1469558                       # number of demand (read+write) accesses
system.cpu.icache.demand_accesses::total      1469558                       # number of demand (read+write) accesses
system.cpu.icache.overall_accesses::.switch_cpus.inst      1469558                       # number of overall (read+write) accesses
system.cpu.icache.overall_accesses::total      1469558                       # number of overall (read+write) accesses
system.cpu.icache.demand_miss_rate::.switch_cpus.inst     0.019692                       # miss rate for demand accesses
system.cpu.icache.demand_miss_rate::total     0.019692                       # miss rate for demand accesses
system.cpu.icache.overall_miss_rate::.switch_cpus.inst     0.019692                       # miss rate for overall accesses
system.cpu.icache.overall_miss_rate::total     0.019692                       # miss rate for overall accesses
system.cpu.icache.demand_avg_miss_latency::.switch_cpus.inst 34478.160890                       # average overall miss latency
system.cpu.icache.demand_avg_miss_latency::total 34478.160890                       # average overall miss latency
system.cpu.icache.overall_avg_miss_latency::.switch_cpus.inst 34478.160890                       # average overall miss latency
system.cpu.icache.overall_avg_miss_latency::total 34478.160890                       # average overall miss latency
system.cpu.icache.blocked_cycles::no_mshrs         2217                       # number of cycles access was blocked
system.cpu.icache.blocked_cycles::no_targets            0                       # number of cycles access was blocked
system.cpu.icache.blocked::no_mshrs                57                       # number of cycles access was blocked
system.cpu.icache.blocked::no_targets               0                       # number of cycles access was blocked
system.cpu.icache.avg_blocked_cycles::no_mshrs    38.894737                       # average number of cycles each access was blocked
system.cpu.icache.avg_blocked_cycles::no_targets          nan                       # average number of cycles each access was blocked
system.cpu.icache.writebacks::.writebacks        24620                       # number of writebacks
system.cpu.icache.writebacks::total             24620                       # number of writebacks
system.cpu.icache.demand_mshr_hits::.switch_cpus.inst         3950                       # number of demand (read+write) MSHR hits
system.cpu.icache.demand_mshr_hits::total         3950                       # number of demand (read+write) MSHR hits
system.cpu.icache.overall_mshr_hits::.switch_cpus.inst         3950                       # number of overall MSHR hits
system.cpu.icache.overall_mshr_hits::total         3950                       # number of overall MSHR hits
system.cpu.icache.demand_mshr_misses::.switch_cpus.inst        24989                       # number of demand (read+write) MSHR misses
system.cpu.icache.demand_mshr_misses::total        24989                       # number of demand (read+write) MSHR misses
system.cpu.icache.overall_mshr_misses::.switch_cpus.inst        24989                       # number of overall MSHR misses
system.cpu.icache.overall_mshr_misses::total        24989                       # number of overall MSHR misses
system.cpu.icache.demand_mshr_miss_latency::.switch_cpus.inst    812130498                       # number of demand (read+write) MSHR miss cycles
system.cpu.icache.demand_mshr_miss_latency::total    812130498                       # number of demand (read+write) MSHR miss cycles
system.cpu.icache.overall_mshr_miss_latency::.switch_cpus.inst    812130498                       # number of overall MSHR miss cycles
system.cpu.icache.overall_mshr_miss_latency::total    812130498                       # number of overall MSHR miss cycles
system.cpu.icache.demand_mshr_miss_rate::.switch_cpus.inst     0.017004                       # mshr miss rate for demand accesses
system.cpu.icache.demand_mshr_miss_rate::total     0.017004                       # mshr miss rate for demand accesses
system.cpu.icache.overall_mshr_miss_rate::.switch_cpus.inst     0.017004                       # mshr miss rate for overall accesses
system.cpu.icache.overall_mshr_miss_rate::total     0.017004                       # mshr miss rate for overall accesses
system.cpu.icache.demand_avg_mshr_miss_latency::.switch_cpus.inst 32499.519709                       # average overall mshr miss latency
system.cpu.icache.demand_avg_mshr_miss_latency::total 32499.519709                       # average overall mshr miss latency
system.cpu.icache.overall_avg_mshr_miss_latency::.switch_cpus.inst 32499.519709                       # average overall mshr miss latency
system.cpu.icache.overall_avg_mshr_miss_latency::total 32499.519709                       # average overall mshr miss latency
system.cpu.icache.replacements                  24620                       # number of replacements
system.cpu.icache.ReadReq_hits::.switch_cpus.inst      1440619                       # number of ReadReq hits
system.cpu.icache.ReadReq_hits::total         1440619                       # number of ReadReq hits
system.cpu.icache.ReadReq_misses::.switch_cpus.inst        28939                       # number of ReadReq misses
system.cpu.icache.ReadReq_misses::total         28939                       # number of ReadReq misses
system.cpu.icache.ReadReq_miss_latency::.switch_cpus.inst    997763498                       # number of ReadReq miss cycles
system.cpu.icache.ReadReq_miss_latency::total    997763498                       # number of ReadReq miss cycles
system.cpu.icache.ReadReq_accesses::.switch_cpus.inst      1469558                       # number of ReadReq accesses(hits+misses)
system.cpu.icache.ReadReq_accesses::total      1469558                       # number of ReadReq accesses(hits+misses)
system.cpu.icache.ReadReq_miss_rate::.switch_cpus.inst     0.019692                       # miss rate for ReadReq accesses
system.cpu.icache.ReadReq_miss_rate::total     0.019692                       # miss rate for ReadReq accesses
system.cpu.icache.ReadReq_avg_miss_latency::.switch_cpus.inst 34478.160890                       # average ReadReq miss latency
system.cpu.icache.ReadReq_avg_miss_latency::total 34478.160890                       # average ReadReq miss latency
system.cpu.icache.ReadReq_mshr_hits::.switch_cpus.inst         3950                       # number of ReadReq MSHR hits
system.cpu.icache.ReadReq_mshr_hits::total         3950                       # number of ReadReq MSHR hits
system.cpu.icache.ReadReq_mshr_misses::.switch_cpus.inst        24989                       # number of ReadReq MSHR misses
system.cpu.icache.ReadReq_mshr_misses::total        24989                       # number of ReadReq MSHR misses
system.cpu.icache.ReadReq_mshr_miss_latency::.switch_cpus.inst    812130498                       # number of ReadReq MSHR miss cycles
system.cpu.icache.ReadReq_mshr_miss_latency::total    812130498                       # number of ReadReq MSHR miss cycles
system.cpu.icache.ReadReq_mshr_miss_rate::.switch_cpus.inst     0.017004                       # mshr miss rate for ReadReq accesses
system.cpu.icache.ReadReq_mshr_miss_rate::total     0.017004                       # mshr miss rate for ReadReq accesses
system.cpu.icache.ReadReq_avg_mshr_miss_latency::.switch_cpus.inst 32499.519709                       # average ReadReq mshr miss latency
system.cpu.icache.ReadReq_avg_mshr_miss_latency::total 32499.519709                       # average ReadReq mshr miss latency
system.cpu.icache.power_state.pwrStateResidencyTicks::UNDEFINED   5029748000                       # Cumulative time (in ticks) in various power states
system.cpu.icache.tags.tagsinuse           939.369345                       # Cycle average of tags in use
system.cpu.icache.tags.total_refs             2799177                       # Total number of references to valid blocks.
system.cpu.icache.tags.sampled_refs             25664                       # Sample count of references to valid blocks.
system.cpu.icache.tags.avg_refs            109.070176                       # Average number of references to valid blocks.
system.cpu.icache.tags.warmup_cycle                 0                       # Cycle when the warmup percentage was hit.
system.cpu.icache.tags.occ_blocks::.cpu.inst   198.421932                       # Average occupied blocks per requestor
system.cpu.icache.tags.occ_blocks::.switch_cpus.inst   740.947413                       # Average occupied blocks per requestor
system.cpu.icache.tags.occ_percent::.cpu.inst     0.193771                       # Average percentage of cache occupancy
system.cpu.icache.tags.occ_percent::.switch_cpus.inst     0.723581                       # Average percentage of cache occupancy
system.cpu.icache.tags.occ_percent::total     0.917353                       # Average percentage of cache occupancy
system.cpu.icache.tags.occ_task_id_blocks::1024         1021                       # Occupied blocks per task id
system.cpu.icache.tags.age_task_id_blocks_1024::0           86                       # Occupied blocks per task id
system.cpu.icache.tags.age_task_id_blocks_1024::1          221                       # Occupied blocks per task id
system.cpu.icache.tags.age_task_id_blocks_1024::2          695                       # Occupied blocks per task id
system.cpu.icache.tags.age_task_id_blocks_1024::3           19                       # Occupied blocks per task id
system.cpu.icache.tags.occ_task_id_percent::1024     0.997070                       # Percentage of cache occupancy per task id
system.cpu.icache.tags.tag_accesses           2964104                       # Number of tag accesses
system.cpu.icache.tags.data_accesses          2964104                       # Number of data accesses
system.cpu.icache.tags.power_state.pwrStateResidencyTicks::UNDEFINED   5029748000                       # Cumulative time (in ticks) in various power states
system.cpu.interrupts.clk_domain.clock           8000                       # Clock period in ticks
system.cpu.itb.rdAccesses                           0                       # TLB accesses on read requests
system.cpu.itb.wrAccesses                           0                       # TLB accesses on write requests
system.cpu.itb.rdMisses                             0                       # TLB misses on read requests
system.cpu.itb.wrMisses                             0                       # TLB misses on write requests
system.cpu.itb.walker.power_state.pwrStateResidencyTicks::UNDEFINED   5029748000                       # Cumulative time (in ticks) in various power states
system.cpu.itb_walker_cache.blocked_cycles::no_mshrs            0                       # number of cycles access was blocked
system.cpu.itb_walker_cache.blocked_cycles::no_targets            0                       # number of cycles access was blocked
system.cpu.itb_walker_cache.blocked::no_mshrs            0                       # number of cycles access was blocked
system.cpu.itb_walker_cache.blocked::no_targets            0                       # number of cycles access was blocked
system.cpu.itb_walker_cache.avg_blocked_cycles::no_mshrs          nan                       # average number of cycles each access was blocked
system.cpu.itb_walker_cache.avg_blocked_cycles::no_targets          nan                       # average number of cycles each access was blocked
system.cpu.itb_walker_cache.replacements            0                       # number of replacements
system.cpu.itb_walker_cache.power_state.pwrStateResidencyTicks::UNDEFINED   5029748000                       # Cumulative time (in ticks) in various power states
system.cpu.itb_walker_cache.tags.tagsinuse            0                       # Cycle average of tags in use
system.cpu.itb_walker_cache.tags.total_refs            0                       # Total number of references to valid blocks.
system.cpu.itb_walker_cache.tags.sampled_refs            0                       # Sample count of references to valid blocks.
system.cpu.itb_walker_cache.tags.avg_refs          nan                       # Average number of references to valid blocks.
system.cpu.itb_walker_cache.tags.warmup_cycle            0                       # Cycle when the warmup percentage was hit.
system.cpu.itb_walker_cache.tags.tag_accesses            0                       # Number of tag accesses
system.cpu.itb_walker_cache.tags.data_accesses            0                       # Number of data accesses
system.cpu.itb_walker_cache.tags.power_state.pwrStateResidencyTicks::UNDEFINED   5029748000                       # Cumulative time (in ticks) in various power states
system.cpu.power_state.pwrStateResidencyTicks::OFF   3979200500                       # Cumulative time (in ticks) in various power states
system.cpu.thread_0.numInsts                        0                       # Number of Instructions committed
system.cpu.thread_0.numOps                          0                       # Number of Ops committed
system.cpu.thread_0.numMemRefs                      0                       # Number of Memory References
system.cpu_clk_domain.clock                       500                       # Clock period in ticks
system.cpu_voltage_domain.voltage                   1                       # Voltage in Volts
system.l2.demand_hits::.switch_cpus.inst        17773                       # number of demand (read+write) hits
system.l2.demand_hits::.switch_cpus.data        10906                       # number of demand (read+write) hits
system.l2.demand_hits::total                    28679                       # number of demand (read+write) hits
system.l2.overall_hits::.switch_cpus.inst        17773                       # number of overall hits
system.l2.overall_hits::.switch_cpus.data        10906                       # number of overall hits
system.l2.overall_hits::total                   28679                       # number of overall hits
system.l2.demand_misses::.switch_cpus.inst         7175                       # number of demand (read+write) misses
system.l2.demand_misses::.switch_cpus.data        21527                       # number of demand (read+write) misses
system.l2.demand_misses::total                  28702                       # number of demand (read+write) misses
system.l2.overall_misses::.switch_cpus.inst         7175                       # number of overall misses
system.l2.overall_misses::.switch_cpus.data        21527                       # number of overall misses
system.l2.overall_misses::total                 28702                       # number of overall misses
system.l2.demand_miss_latency::.switch_cpus.inst    586597000                       # number of demand (read+write) miss cycles
system.l2.demand_miss_latency::.switch_cpus.data   1758679000                       # number of demand (read+write) miss cycles
system.l2.demand_miss_latency::total       2345276000                       # number of demand (read+write) miss cycles
system.l2.overall_miss_latency::.switch_cpus.inst    586597000                       # number of overall miss cycles
system.l2.overall_miss_latency::.switch_cpus.data   1758679000                       # number of overall miss cycles
system.l2.overall_miss_latency::total      2345276000                       # number of overall miss cycles
system.l2.demand_accesses::.switch_cpus.inst        24948                       # number of demand (read+write) accesses
system.l2.demand_accesses::.switch_cpus.data        32433                       # number of demand (read+write) accesses
system.l2.demand_accesses::total                57381                       # number of demand (read+write) accesses
system.l2.overall_accesses::.switch_cpus.inst        24948                       # number of overall (read+write) accesses
system.l2.overall_accesses::.switch_cpus.data        32433                       # number of overall (read+write) accesses
system.l2.overall_accesses::total               57381                       # number of overall (read+write) accesses
system.l2.demand_miss_rate::.switch_cpus.inst     0.287598                       # miss rate for demand accesses
system.l2.demand_miss_rate::.switch_cpus.data     0.663738                       # miss rate for demand accesses
system.l2.demand_miss_rate::total            0.500200                       # miss rate for demand accesses
system.l2.overall_miss_rate::.switch_cpus.inst     0.287598                       # miss rate for overall accesses
system.l2.overall_miss_rate::.switch_cpus.data     0.663738                       # miss rate for overall accesses
system.l2.overall_miss_rate::total           0.500200                       # miss rate for overall accesses
system.l2.demand_avg_miss_latency::.switch_cpus.inst 81755.679443                       # average overall miss latency
system.l2.demand_avg_miss_latency::.switch_cpus.data 81696.427742                       # average overall miss latency
system.l2.demand_avg_miss_latency::total 81711.239635                       # average overall miss latency
system.l2.overall_avg_miss_latency::.switch_cpus.inst 81755.679443                       # average overall miss latency
system.l2.overall_avg_miss_latency::.switch_cpus.data 81696.427742                       # average overall miss latency
system.l2.overall_avg_miss_latency::total 81711.239635                       # average overall miss latency
system.l2.blocked_cycles::no_mshrs                  0                       # number of cycles access was blocked
system.l2.blocked_cycles::no_targets                0                       # number of cycles access was blocked
system.l2.blocked::no_mshrs                         0                       # number of cycles access was blocked
system.l2.blocked::no_targets                       0                       # number of cycles access was blocked
system.l2.avg_blocked_cycles::no_mshrs            nan                       # average number of cycles each access was blocked
system.l2.avg_blocked_cycles::no_targets          nan                       # average number of cycles each access was blocked
system.l2.writebacks::.writebacks                6491                       # number of writebacks
system.l2.writebacks::total                      6491                       # number of writebacks
system.l2.demand_mshr_hits::.switch_cpus.inst            1                       # number of demand (read+write) MSHR hits
system.l2.demand_mshr_hits::.switch_cpus.data            1                       # number of demand (read+write) MSHR hits
system.l2.demand_mshr_hits::total                   2                       # number of demand (read+write) MSHR hits
system.l2.overall_mshr_hits::.switch_cpus.inst            1                       # number of overall MSHR hits
system.l2.overall_mshr_hits::.switch_cpus.data            1                       # number of overall MSHR hits
system.l2.overall_mshr_hits::total                  2                       # number of overall MSHR hits
system.l2.demand_mshr_misses::.switch_cpus.inst         7174                       # number of demand (read+write) MSHR misses
system.l2.demand_mshr_misses::.switch_cpus.data        21526                       # number of demand (read+write) MSHR misses
system.l2.demand_mshr_misses::total             28700                       # number of demand (read+write) MSHR misses
system.l2.overall_mshr_misses::.switch_cpus.inst         7174                       # number of overall MSHR misses
system.l2.overall_mshr_misses::.switch_cpus.data        21526                       # number of overall MSHR misses
system.l2.overall_mshr_misses::total            28700                       # number of overall MSHR misses
system.l2.demand_mshr_miss_latency::.switch_cpus.inst    514784500                       # number of demand (read+write) MSHR miss cycles
system.l2.demand_mshr_miss_latency::.switch_cpus.data   1543352000                       # number of demand (read+write) MSHR miss cycles
system.l2.demand_mshr_miss_latency::total   2058136500                       # number of demand (read+write) MSHR miss cycles
system.l2.overall_mshr_miss_latency::.switch_cpus.inst    514784500                       # number of overall MSHR miss cycles
system.l2.overall_mshr_miss_latency::.switch_cpus.data   1543352000                       # number of overall MSHR miss cycles
system.l2.overall_mshr_miss_latency::total   2058136500                       # number of overall MSHR miss cycles
system.l2.demand_mshr_miss_rate::.switch_cpus.inst     0.287558                       # mshr miss rate for demand accesses
system.l2.demand_mshr_miss_rate::.switch_cpus.data     0.663707                       # mshr miss rate for demand accesses
system.l2.demand_mshr_miss_rate::total       0.500166                       # mshr miss rate for demand accesses
system.l2.overall_mshr_miss_rate::.switch_cpus.inst     0.287558                       # mshr miss rate for overall accesses
system.l2.overall_mshr_miss_rate::.switch_cpus.data     0.663707                       # mshr miss rate for overall accesses
system.l2.overall_mshr_miss_rate::total      0.500166                       # mshr miss rate for overall accesses
system.l2.demand_avg_mshr_miss_latency::.switch_cpus.inst 71756.969612                       # average overall mshr miss latency
system.l2.demand_avg_mshr_miss_latency::.switch_cpus.data 71697.110471                       # average overall mshr miss latency
system.l2.demand_avg_mshr_miss_latency::total 71712.073171                       # average overall mshr miss latency
system.l2.overall_avg_mshr_miss_latency::.switch_cpus.inst 71756.969612                       # average overall mshr miss latency
system.l2.overall_avg_mshr_miss_latency::.switch_cpus.data 71697.110471                       # average overall mshr miss latency
system.l2.overall_avg_mshr_miss_latency::total 71712.073171                       # average overall mshr miss latency
system.l2.replacements                          27932                       # number of replacements
system.l2.WritebackDirty_hits::.writebacks        13987                       # number of WritebackDirty hits
system.l2.WritebackDirty_hits::total            13987                       # number of WritebackDirty hits
system.l2.WritebackDirty_accesses::.writebacks        13987                       # number of WritebackDirty accesses(hits+misses)
system.l2.WritebackDirty_accesses::total        13987                       # number of WritebackDirty accesses(hits+misses)
system.l2.WritebackClean_hits::.writebacks        24587                       # number of WritebackClean hits
system.l2.WritebackClean_hits::total            24587                       # number of WritebackClean hits
system.l2.WritebackClean_accesses::.writebacks        24587                       # number of WritebackClean accesses(hits+misses)
system.l2.WritebackClean_accesses::total        24587                       # number of WritebackClean accesses(hits+misses)
system.l2.CleanEvict_mshr_misses::.writebacks           43                       # number of CleanEvict MSHR misses
system.l2.CleanEvict_mshr_misses::total            43                       # number of CleanEvict MSHR misses
system.l2.CleanEvict_mshr_miss_rate::.writebacks          inf                       # mshr miss rate for CleanEvict accesses
[...]
system.switch_cpus.commit.committedInstType_0::SimdCmp         2532      0.02%     80.02% # Class of committed instruction
system.switch_cpus.commit.committedInstType_0::SimdCvt        72874      0.68%     80.69% # Class of committed instruction
system.switch_cpus.commit.committedInstType_0::SimdMisc       101351      0.94%     81.63% # Class of committed instruction
system.switch_cpus.commit.committedInstType_0::SimdMult            0      0.00%     81.63% # Class of committed instruction
system.switch_cpus.commit.committedInstType_0::SimdMultAcc            0      0.00%     81.63% # Class of committed instruction
system.switch_cpus.commit.committedInstType_0::SimdShift         2717      0.03%     81.66% # Class of committed instruction
system.switch_cpus.commit.committedInstType_0::SimdShiftAcc            0      0.00%     81.66% # Class of committed instruction
system.switch_cpus.commit.committedInstType_0::SimdDiv            0      0.00%     81.66% # Class of committed instruction
system.switch_cpus.commit.committedInstType_0::SimdSqrt            0      0.00%     81.66% # Class of committed instruction
system.switch_cpus.commit.committedInstType_0::SimdFloatAdd           11      0.00%     81.66% # Class of committed instruction
system.switch_cpus.commit.committedInstType_0::SimdFloatAlu            0      0.00%     81.66% # Class of committed instruction
system.switch_cpus.commit.committedInstType_0::SimdFloatCmp            0      0.00%     81.66% # Class of committed instruction
system.switch_cpus.commit.committedInstType_0::SimdFloatCvt           44      0.00%     81.66% # Class of committed instruction
system.switch_cpus.commit.committedInstType_0::SimdFloatDiv           30      0.00%     81.66% # Class of committed instruction
system.switch_cpus.commit.committedInstType_0::SimdFloatMisc            0      0.00%     81.66% # Class of committed instruction
system.switch_cpus.commit.committedInstType_0::SimdFloatMult            8      0.00%     81.66% # Class of committed instruction
system.switch_cpus.commit.committedInstType_0::SimdFloatMultAcc            0      0.00%     81.66% # Class of committed instruction
system.switch_cpus.commit.committedInstType_0::SimdFloatSqrt            0      0.00%     81.66% # Class of committed instruction
system.switch_cpus.commit.committedInstType_0::SimdReduceAdd            0      0.00%     81.66% # Class of committed instruction
system.switch_cpus.commit.committedInstType_0::SimdReduceAlu            0      0.00%     81.66% # Class of committed instruction
system.switch_cpus.commit.committedInstType_0::SimdReduceCmp            0      0.00%     81.66% # Class of committed instruction
system.switch_cpus.commit.committedInstType_0::SimdFloatReduceAdd            0      0.00%     81.66% # Class of committed instruction
system.switch_cpus.commit.committedInstType_0::SimdFloatReduceCmp            0      0.00%     81.66% # Class of committed instruction
system.switch_cpus.commit.committedInstType_0::SimdAes            0      0.00%     81.66% # Class of committed instruction
system.switch_cpus.commit.committedInstType_0::SimdAesMix            0      0.00%     81.66% # Class of committed instruction
system.switch_cpus.commit.committedInstType_0::SimdSha1Hash            0      0.00%     81.66% # Class of committed instruction
system.switch_cpus.commit.committedInstType_0::SimdSha1Hash2            0      0.00%     81.66% # Class of committed instruction
system.switch_cpus.commit.committedInstType_0::SimdSha256Hash            0      0.00%     81.66% # Class of committed instruction
system.switch_cpus.commit.committedInstType_0::SimdSha256Hash2            0      0.00%     81.66% # Class of committed instruction
system.switch_cpus.commit.committedInstType_0::SimdShaSigma2            0      0.00%     81.66% # Class of committed instruction
system.switch_cpus.commit.committedInstType_0::SimdShaSigma3            0      0.00%     81.66% # Class of committed instruction
system.switch_cpus.commit.committedInstType_0::SimdPredAlu            0      0.00%     81.66% # Class of committed instruction
system.switch_cpus.commit.committedInstType_0::MemRead      1198571     11.11%     92.77% # Class of committed instruction
system.switch_cpus.commit.committedInstType_0::MemWrite       645149      5.98%     98.75% # Class of committed instruction
system.switch_cpus.commit.committedInstType_0::FloatMemRead        92311      0.86%     99.61% # Class of committed instruction
system.switch_cpus.commit.committedInstType_0::FloatMemWrite        42292      0.39%    100.00% # Class of committed instruction
system.switch_cpus.commit.committedInstType_0::IprAccess            0      0.00%    100.00% # Class of committed instruction
system.switch_cpus.commit.committedInstType_0::InstPrefetch            0      0.00%    100.00% # Class of committed instruction
system.switch_cpus.commit.committedInstType_0::total     10786153                       # Class of committed instruction
system.switch_cpus.commit.commitEligibleSamples       561200                       # number cycles where commit BW limit reached
system.switch_cpus.decode.idleCycles          1762692                       # Number of cycles decode is idle
system.switch_cpus.decode.blockedCycles       2670982                       # Number of cycles decode is blocked
system.switch_cpus.decode.runCycles           2468273                       # Number of cycles decode is running
system.switch_cpus.decode.unblockCycles        317642                       # Number of cycles decode is unblocking
system.switch_cpus.decode.squashCycles         167652                       # Number of cycles decode is squashing
system.switch_cpus.decode.branchResolved       764581                       # Number of times decode resolved a  branch
system.switch_cpus.decode.branchMispred         16712                       # Number of times decode detected a branch misprediction
system.switch_cpus.decode.decodedInsts       18803485                       # Number of instructions handled by decode
system.switch_cpus.decode.squashedInsts         70210                       # Number of squashed instructions handled by decode
system.switch_cpus.dtb.rdAccesses             1870120                       # TLB accesses on read requests
system.switch_cpus.dtb.wrAccesses              868825                       # TLB accesses on write requests
system.switch_cpus.dtb.rdMisses                  3358                       # TLB misses on read requests
system.switch_cpus.dtb.wrMisses                  1246                       # TLB misses on write requests
system.switch_cpus.dtb.walker.power_state.pwrStateResidencyTicks::UNDEFINED   5029748000                       # Cumulative time (in ticks) in various power states
system.switch_cpus.fetch.icacheStallCycles      2026363                       # Number of cycles fetch is stalled on an Icache miss
system.switch_cpus.fetch.insts               10389954                       # Number of instructions fetch has processed
system.switch_cpus.fetch.branches             2197437                       # Number of branches that fetch encountered
system.switch_cpus.fetch.predictedBranches      1024249                       # Number of branches that fetch has predicted taken
system.switch_cpus.fetch.cycles               5134690                       # Number of cycles fetch has run and was not squashing or blocked
system.switch_cpus.fetch.squashCycles          367708                       # Number of cycles fetch has spent squashing
system.switch_cpus.fetch.miscStallCycles         4533                       # Number of cycles fetch has spent waiting on interrupts,or bad addresses, or out of MSHRs
system.switch_cpus.fetch.pendingTrapStallCycles        37525                       # Number of stall cycles due to pending traps
system.switch_cpus.fetch.pendingQuiesceStallCycles           27                       # Number of stall cycles due to pending quiesce instructions
system.switch_cpus.fetch.icacheWaitRetryStallCycles          261                       # Number of stall cycles due to full MSHR
system.switch_cpus.fetch.cacheLines           1469560                       # Number of cache lines fetched
system.switch_cpus.fetch.icacheSquashes         54981                       # Number of outstanding Icache misses that were squashed
system.switch_cpus.fetch.nisnDist::samples      7387253                       # Number of instructions fetched each cycle (Total)
system.switch_cpus.fetch.nisnDist::mean      2.723082                       # Number of instructions fetched each cycle (Total)
system.switch_cpus.fetch.nisnDist::stdev     3.450879                       # Number of instructions fetched each cycle (Total)
system.switch_cpus.fetch.nisnDist::underflows            0      0.00%      0.00% # Number of instructions fetched each cycle (Total)
system.switch_cpus.fetch.nisnDist::0          4192214     56.75%     56.75% # Number of instructions fetched each cycle (Total)
system.switch_cpus.fetch.nisnDist::1           141173      1.91%     58.66% # Number of instructions fetched each cycle (Total)
system.switch_cpus.fetch.nisnDist::2           152594      2.07%     60.73% # Number of instructions fetched each cycle (Total)
system.switch_cpus.fetch.nisnDist::3           164276      2.22%     62.95% # Number of instructions fetched each cycle (Total)
system.switch_cpus.fetch.nisnDist::4           370353      5.01%     67.96% # Number of instructions fetched each cycle (Total)
system.switch_cpus.fetch.nisnDist::5           221455      3.00%     70.96% # Number of instructions fetched each cycle (Total)
system.switch_cpus.fetch.nisnDist::6           182280      2.47%     73.43% # Number of instructions fetched each cycle (Total)
system.switch_cpus.fetch.nisnDist::7           208727      2.83%     76.25% # Number of instructions fetched each cycle (Total)
system.switch_cpus.fetch.nisnDist::8          1754181     23.75%    100.00% # Number of instructions fetched each cycle (Total)
system.switch_cpus.fetch.nisnDist::overflows            0      0.00%    100.00% # Number of instructions fetched each cycle (Total)
system.switch_cpus.fetch.nisnDist::min_value            0                       # Number of instructions fetched each cycle (Total)
system.switch_cpus.fetch.nisnDist::max_value            8                       # Number of instructions fetched each cycle (Total)
system.switch_cpus.fetch.nisnDist::total      7387253                       # Number of instructions fetched each cycle (Total)
system.switch_cpus.fetch.branchRate          0.276115                       # Number of branch fetches per cycle
system.switch_cpus.fetch.rate                1.305533                       # Number of inst fetches per cycle
system.switch_cpus.itb.rdAccesses                   0                       # TLB accesses on read requests
system.switch_cpus.itb.wrAccesses             1475682                       # TLB accesses on write requests
system.switch_cpus.itb.rdMisses                     0                       # TLB misses on read requests
system.switch_cpus.itb.wrMisses                  7573                       # TLB misses on write requests
system.switch_cpus.itb.walker.power_state.pwrStateResidencyTicks::UNDEFINED   5029748000                       # Cumulative time (in ticks) in various power states
system.switch_cpus.lsq0.forwLoads              158230                       # Number of loads that had data forwarded from stores
system.switch_cpus.lsq0.squashedLoads          836417                       # Number of loads squashed
system.switch_cpus.lsq0.ignoredResponses         2201                       # Number of memory responses ignored because the instruction is squashed
system.switch_cpus.lsq0.memOrderViolation          973                       # Number of memory ordering violations
system.switch_cpus.lsq0.squashedStores         335088                       # Number of stores squashed
system.switch_cpus.lsq0.rescheduledLoads         2815                       # Number of loads that were rescheduled
system.switch_cpus.lsq0.blockedByCache           2312                       # Number of times an access to memory failed due to the cache being blocked
system.switch_cpus.power_state.pwrStateResidencyTicks::OFF   5029748000                       # Cumulative time (in ticks) in various power states
system.switch_cpus.rename.squashCycles         167652                       # Number of cycles rename is squashing
system.switch_cpus.rename.idleCycles          1945837                       # Number of cycles rename is idle
system.switch_cpus.rename.blockCycles         1883703                       # Number of cycles rename is blocking
system.switch_cpus.rename.serializeStallCycles        15704                       # count of cycles rename stalledfor serializing inst
system.switch_cpus.rename.runCycles           2583817                       # Number of cycles rename is running
system.switch_cpus.rename.unblockCycles        790522                       # Number of cycles rename is unblocking
system.switch_cpus.rename.renamedInsts       18100224                       # Number of instructions processed by rename
system.switch_cpus.rename.ROBFullEvents         22375                       # Number of times rename has blocked due to ROB full
system.switch_cpus.rename.IQFullEvents         319770                       # Number of times rename has blocked due to IQ full
system.switch_cpus.rename.LQFullEvents          33497                       # Number of times rename has blocked due to LQ full
system.switch_cpus.rename.SQFullEvents         397778                       # Number of times rename has blocked due to SQ full
system.switch_cpus.rename.fullRegistersEvents           68                       # Number of times there has been no free registers
system.switch_cpus.rename.renamedOperands     20563997                       # Number of destination operands rename has renamed
system.switch_cpus.rename.lookups            45320894                       # Number of register rename lookups that rename has made
system.switch_cpus.rename.intLookups         26576551                       # Number of integer rename lookups
system.switch_cpus.rename.fpLookups           1244155                       # Number of floating rename lookups
system.switch_cpus.rename.committedMaps      12664975                       # Number of HB maps that are committed
system.switch_cpus.rename.undoneMaps          7899016                       # Number of HB maps that are undone due to squashing
system.switch_cpus.rename.serializing            1058                       # count of serializing insts renamed
system.switch_cpus.rename.tempSerializing         1051                       # count of temporary serializing insts renamed
system.switch_cpus.rename.skidInsts           1064471                       # count of insts added to the skid buffer
system.switch_cpus.rob.reads                 22699187                       # The number of ROB reads
system.switch_cpus.rob.writes                34348071                       # The number of ROB writes
system.switch_cpus.thread_0.numInsts          5628199                       # Number of Instructions committed
system.switch_cpus.thread_0.numOps           10786153                       # Number of Ops committed
system.switch_cpus.thread_0.numMemRefs              0                       # Number of Memory References
system.tol2bus.trans_dist::ReadResp             49540                       # Transaction distribution
system.tol2bus.trans_dist::WritebackDirty        20478                       # Transaction distribution
system.tol2bus.trans_dist::WritebackClean        24620                       # Transaction distribution
system.tol2bus.trans_dist::CleanEvict           39887                       # Transaction distribution
system.tol2bus.trans_dist::UpgradeReq              25                       # Transaction distribution
system.tol2bus.trans_dist::UpgradeResp             25                       # Transaction distribution
system.tol2bus.trans_dist::ReadExReq             7881                       # Transaction distribution
system.tol2bus.trans_dist::ReadExResp            7881                       # Transaction distribution
system.tol2bus.trans_dist::ReadCleanReq         24989                       # Transaction distribution
system.tol2bus.trans_dist::ReadSharedReq        24552                       # Transaction distribution
system.tol2bus.pkt_count_system.cpu.icache.mem_side_port::system.l2.cpu_side_port        74556                       # Packet count per connected requestor and responder (bytes)
system.tol2bus.pkt_count_system.cpu.dcache.mem_side_port::system.l2.cpu_side_port        97349                       # Packet count per connected requestor and responder (bytes)
system.tol2bus.pkt_count::total                171905                       # Packet count per connected requestor and responder (bytes)
system.tol2bus.pkt_size_system.cpu.icache.mem_side_port::system.l2.cpu_side_port      3172288                       # Cumulative packet size per connected requestor and responder (bytes)
system.tol2bus.pkt_size_system.cpu.dcache.mem_side_port::system.l2.cpu_side_port      2970880                       # Cumulative packet size per connected requestor and responder (bytes)
system.tol2bus.pkt_size::total                6143168                       # Cumulative packet size per connected requestor and responder (bytes)
system.tol2bus.snoops                           27973                       # Total snoops (count)
system.tol2bus.snoopTraffic                    418048                       # Total snoop traffic (bytes)
system.tol2bus.snoop_fanout::samples            85379                       # Request fanout histogram
system.tol2bus.snoop_fanout::mean            0.015917                       # Request fanout histogram
system.tol2bus.snoop_fanout::stdev           0.125156                       # Request fanout histogram
system.tol2bus.snoop_fanout::underflows             0      0.00%      0.00% # Request fanout histogram
system.tol2bus.snoop_fanout::0                  84020     98.41%     98.41% # Request fanout histogram
system.tol2bus.snoop_fanout::1                   1359      1.59%    100.00% # Request fanout histogram
system.tol2bus.snoop_fanout::2                      0      0.00%    100.00% # Request fanout histogram
system.tol2bus.snoop_fanout::3                      0      0.00%    100.00% # Request fanout histogram
system.tol2bus.snoop_fanout::4                      0      0.00%    100.00% # Request fanout histogram
system.tol2bus.snoop_fanout::overflows              0      0.00%    100.00% # Request fanout histogram
system.tol2bus.snoop_fanout::min_value              0                       # Request fanout histogram
system.tol2bus.snoop_fanout::max_value              1                       # Request fanout histogram
system.tol2bus.snoop_fanout::total              85379                       # Request fanout histogram
system.tol2bus.power_state.pwrStateResidencyTicks::UNDEFINED   5029748000                       # Cumulative time (in ticks) in various power states
system.tol2bus.reqLayer0.occupancy           95857000                       # Layer occupancy (ticks)
system.tol2bus.reqLayer0.utilization              2.4                       # Layer utilization (%)
system.tol2bus.respLayer0.occupancy          37487988                       # Layer occupancy (ticks)
system.tol2bus.respLayer0.utilization             0.9                       # Layer utilization (%)
system.tol2bus.respLayer1.occupancy          48668487                       # Layer occupancy (ticks)
system.tol2bus.respLayer1.utilization             1.2                       # Layer utilization (%)
system.voltage_domain.voltage                       1                       # Voltage in Volts

---------- End Simulation Statistics   ----------
