
---------- Begin Simulation Statistics ----------
final_tick                                 4035433500                       # Number of ticks from beginning of simulation (restored from checkpoints and never reset)
host_inst_rate                                 213482                       # Simulator instruction rate (inst/s)
host_mem_usage                                8574632                       # Number of bytes of host memory used
host_op_rate                                   389127                       # Simulator op (including micro ops) rate (op/s)
host_seconds                                    51.53                       # Real time elapsed on the host
host_tick_rate                               51500590                       # Simulator tick rate (ticks/s)
sim_freq                                 1000000000000                       # Frequency of simulated ticks
sim_insts                                    11000001                       # Number of instructions simulated
sim_ops                                      20050437                       # Number of ops (including micro ops) simulated
sim_seconds                                  0.002654                       # Number of seconds simulated
sim_ticks                                  2653659500                       # Number of ticks simulated
system.cpu.committedInsts                           0                       # Number of instructions committed
system.cpu.committedOps                             0                       # Number of ops (including micro ops) committed
system.cpu.idle_fraction                            0                       # Percentage of idle cycles
system.cpu.not_idle_fraction                        1                       # Percentage of non-idle cycles
system.cpu.numCycles                                0                       # number of cpu cycles simulated
system.cpu.numWorkItemsCompleted                    0                       # number of work items this cpu completed
system.cpu.numWorkItemsStarted                      0                       # number of work items this cpu started
system.cpu.num_busy_cycles                          0                       # Number of busy cycles
system.cpu.num_conditional_control_insts            0                       # number of instructions that are conditional controls
system.cpu.num_fp_alu_accesses                      0                       # Number of float alu accesses
system.cpu.num_fp_insts                             0                       # number of float instructions
system.cpu.num_fp_register_reads                    0                       # number of times the floating registers were read
system.cpu.num_fp_register_writes                   0                       # number of times the floating registers were written
system.cpu.num_func_calls                           0                       # number of times a function call or return occured
system.cpu.num_idle_cycles                          0                       # Number of idle cycles
system.cpu.num_int_alu_accesses                     0                       # Number of integer alu accesses
system.cpu.num_int_insts                            0                       # number of integer instructions
system.cpu.num_int_register_reads                   0                       # number of times the integer registers were read
system.cpu.num_int_register_writes                  0                       # number of times the integer registers were written
system.cpu.num_load_insts                           0                       # Number of load instructions
system.cpu.num_mem_refs                             0                       # number of memory refs
system.cpu.num_store_insts                          0                       # Number of store instructions
system.cpu.num_vec_alu_accesses                     0                       # Number of vector alu accesses
system.cpu.num_vec_insts                            0                       # number of vector instructions
system.cpu.num_vec_register_reads                   0                       # number of times the vector registers were read
system.cpu.num_vec_register_writes                  0                       # number of times the vector registers were written
system.cpu.op_class::No_OpClass                     0                       # Class of executed instruction
system.cpu.op_class::IntAlu                         0                       # Class of executed instruction
system.cpu.op_class::IntMult                        0                       # Class of executed instruction
system.cpu.op_class::IntDiv                         0                       # Class of executed instruction
system.cpu.op_class::FloatAdd                       0                       # Class of executed instruction
system.cpu.op_class::FloatCmp                       0                       # Class of executed instruction
system.cpu.op_class::FloatCvt                       0                       # Class of executed instruction
system.cpu.op_class::FloatMult                      0                       # Class of executed instruction
system.cpu.op_class::FloatMultAcc                   0                       # Class of executed instruction
system.cpu.op_class::FloatDiv                       0                       # Class of executed instruction
system.cpu.op_class::FloatMisc                      0                       # Class of executed instruction
system.cpu.op_class::FloatSqrt                      0                       # Class of executed instruction
system.cpu.op_class::SimdAdd                        0                       # Class of executed instruction
system.cpu.op_class::SimdAddAcc                     0                       # Class of executed instruction
system.cpu.op_class::SimdAlu                        0                       # Class of executed instruction
system.cpu.op_class::SimdCmp                        0                       # Class of executed instruction
system.cpu.op_class::SimdCvt                        0                       # Class of executed instruction
system.cpu.op_class::SimdMisc                       0                       # Class of executed instruction
system.cpu.op_class::SimdMult                       0                       # Class of executed instruction
system.cpu.op_class::SimdMultAcc                    0                       # Class of executed instruction
system.cpu.op_class::SimdShift                      0                       # Class of executed instruction
system.cpu.op_class::SimdShiftAcc                   0                       # Class of executed instruction
system.cpu.op_class::SimdDiv                        0                       # Class of executed instruction
system.cpu.op_class::SimdSqrt                       0                       # Class of executed instruction
system.cpu.op_class::SimdFloatAdd                   0                       # Class of executed instruction
system.cpu.op_class::SimdFloatAlu                   0                       # Class of executed instruction
system.cpu.op_class::SimdFloatCmp                   0                       # Class of executed instruction
system.cpu.op_class::SimdFloatCvt                   0                       # Class of executed instruction
system.cpu.op_class::SimdFloatDiv                   0                       # Class of executed instruction
system.cpu.op_class::SimdFloatMisc                  0                       # Class of executed instruction
system.cpu.op_class::SimdFloatMult                  0                       # Class of executed instruction
system.cpu.op_class::SimdFloatMultAcc               0                       # Class of executed instruction
system.cpu.op_class::SimdFloatSqrt                  0                       # Class of executed instruction
system.cpu.op_class::SimdReduceAdd                  0                       # Class of executed instruction
system.cpu.op_class::SimdReduceAlu                  0                       # Class of executed instruction
system.cpu.op_class::SimdReduceCmp                  0                       # Class of executed instruction
system.cpu.op_class::SimdFloatReduceAdd             0                       # Class of executed instruction
system.cpu.op_class::SimdFloatReduceCmp             0                       # Class of executed instruction
system.cpu.op_class::SimdAes                        0                       # Class of executed instruction
system.cpu.op_class::SimdAesMix                     0                       # Class of executed instruction
system.cpu.op_class::SimdSha1Hash                   0                       # Class of executed instruction
system.cpu.op_class::SimdSha1Hash2                  0                       # Class of executed instruction
system.cpu.op_class::SimdSha256Hash                 0                       # Class of executed instruction
system.cpu.op_class::SimdSha256Hash2                0                       # Class of executed instruction
system.cpu.op_class::SimdShaSigma2                  0                       # Class of executed instruction
system.cpu.op_class::SimdShaSigma3                  0                       # Class of executed instruction
system.cpu.op_class::SimdPredAlu                    0                       # Class of executed instruction
system.cpu.op_class::MemRead                        0                       # Class of executed instruction
system.cpu.op_class::MemWrite                       0                       # Class of executed instruction
system.cpu.op_class::FloatMemRead                   0                       # Class of executed instruction
system.cpu.op_class::FloatMemWrite                  0                       # Class of executed instruction
system.cpu.op_class::IprAccess                      0                       # Class of executed instruction
system.cpu.op_class::InstPrefetch                   0                       # Class of executed instruction
system.cpu.op_class::total                          0                       # Class of executed instruction
system.cpu.workload.numSyscalls                     3                       # Number of system calls
system.membus.snoop_filter.hit_multi_requests            0                       # Number of requests hitting in the snoop filter with multiple (>1) holders of the requested data.
system.membus.snoop_filter.hit_multi_snoops            0                       # Number of snoops hitting in the snoop filter with multiple (>1) holders of the requested data.
system.membus.snoop_filter.hit_single_requests         6711                       # Number of requests hitting in the snoop filter with a single holder of the requested data.
system.membus.snoop_filter.hit_single_snoops            0                       # Number of snoops hitting in the snoop filter with a single holder of the requested data.
system.membus.snoop_filter.tot_requests         16104                       # Total number of requests made to the snoop filter.
system.membus.snoop_filter.tot_snoops               0                       # Total number of snoops made to the snoop filter.
system.switch_cpus.cc_regfile_reads           4013028                       # number of cc regfile reads
system.switch_cpus.cc_regfile_writes          3977949                       # number of cc regfile writes
system.switch_cpus.committedInsts            10000000                       # Number of Instructions Simulated
system.switch_cpus.committedOps              17613021                       # Number of Ops (including micro ops) Simulated
system.switch_cpus.cpi                       0.530732                       # CPI: Cycles Per Instruction
system.switch_cpus.cpi_total                 0.530732                       # CPI: Total CPI of All Threads
system.switch_cpus.fp_regfile_reads          13279328                       # number of floating regfile reads
system.switch_cpus.fp_regfile_writes          7548470                       # number of floating regfile writes
system.switch_cpus.idleCycles                     303                       # Total number of cycles that the CPU has spent unscheduled due to idling
system.switch_cpus.iew.branchMispredicts        11920                       # Number of branch mispredicts detected at execute
system.switch_cpus.iew.exec_branches          1101090                       # Number of branches executed
system.switch_cpus.iew.exec_nop                     0                       # number of nop insts executed
system.switch_cpus.iew.exec_rate             3.464249                       # Inst execution rate
system.switch_cpus.iew.exec_refs              2839364                       # number of memory reference insts executed
system.switch_cpus.iew.exec_stores             460910                       # Number of stores executed
system.switch_cpus.iew.exec_swp                     0                       # number of swp insts executed
system.switch_cpus.iew.iewBlockCycles          156455                       # Number of cycles IEW is blocking
system.switch_cpus.iew.iewDispLoadInsts       2406130                       # Number of dispatched load instructions
system.switch_cpus.iew.iewDispNonSpecInsts            0                       # Number of dispatched non-speculative instructions
system.switch_cpus.iew.iewDispSquashedInsts          328                       # Number of squashed instructions skipped by dispatch
system.switch_cpus.iew.iewDispStoreInsts       484239                       # Number of dispatched store instructions
system.switch_cpus.iew.iewDispatchedInsts     18900605                       # Number of instructions dispatched to IQ
system.switch_cpus.iew.iewExecLoadInsts       2378454                       # Number of load instructions executed
system.switch_cpus.iew.iewExecSquashedInsts        19548                       # Number of squashed instructions skipped in execute
system.switch_cpus.iew.iewExecutedInsts      18385875                       # Number of executed instructions
system.switch_cpus.iew.iewIQFullEvents             16                       # Number of times the IQ has become full, causing a stall
system.switch_cpus.iew.iewIdleCycles                0                       # Number of cycles IEW is idle
system.switch_cpus.iew.iewLSQFullEvents           308                       # Number of times the LSQ has become full, causing a stall
system.switch_cpus.iew.iewSquashCycles          12009                       # Number of cycles IEW is squashing
system.switch_cpus.iew.iewUnblockCycles           335                       # Number of cycles IEW is unblocking
system.switch_cpus.iew.memOrderViolationEvents           16                       # Number of memory order violations
system.switch_cpus.iew.predictedNotTakenIncorrect          486                       # Number of branches that were predicted not taken incorrectly
system.switch_cpus.iew.predictedTakenIncorrect        11434                       # Number of branches that were predicted taken incorrectly
system.switch_cpus.iew.wb_consumers          23919171                       # num instructions consuming a value
system.switch_cpus.iew.wb_count              18363549                       # cumulative count of insts written-back
system.switch_cpus.iew.wb_fanout             0.597567                       # average fanout of values written-back
system.switch_cpus.iew.wb_producers          14293301                       # num instructions producing a value
system.switch_cpus.iew.wb_rate               3.460042                       # insts written-back per cycle
system.switch_cpus.iew.wb_sent               18375224                       # cumulative count of insts sent to commit
system.switch_cpus.int_regfile_reads         17359813                       # number of integer regfile reads
system.switch_cpus.int_regfile_writes         8943247                       # number of integer regfile writes
system.switch_cpus.ipc                       1.884190                       # IPC: Instructions Per Cycle
system.switch_cpus.ipc_total                 1.884190                       # IPC: Total IPC of All Threads
system.switch_cpus.iq.FU_type_0::No_OpClass       321871      1.75%      1.75% # Type of FU issued
system.switch_cpus.iq.FU_type_0::IntAlu       9577515     52.04%     53.79% # Type of FU issued
system.switch_cpus.iq.FU_type_0::IntMult          307      0.00%     53.79% # Type of FU issued
system.switch_cpus.iq.FU_type_0::IntDiv             0      0.00%     53.79% # Type of FU issued
system.switch_cpus.iq.FU_type_0::FloatAdd       475701      2.58%     56.37% # Type of FU issued
system.switch_cpus.iq.FU_type_0::FloatCmp            0      0.00%     56.37% # Type of FU issued
system.switch_cpus.iq.FU_type_0::FloatCvt            0      0.00%     56.37% # Type of FU issued
system.switch_cpus.iq.FU_type_0::FloatMult            0      0.00%     56.37% # Type of FU issued
system.switch_cpus.iq.FU_type_0::FloatMultAcc            0      0.00%     56.37% # Type of FU issued
system.switch_cpus.iq.FU_type_0::FloatDiv            0      0.00%     56.37% # Type of FU issued
system.switch_cpus.iq.FU_type_0::FloatMisc            0      0.00%     56.37% # Type of FU issued
system.switch_cpus.iq.FU_type_0::FloatSqrt            0      0.00%     56.37% # Type of FU issued
system.switch_cpus.iq.FU_type_0::SimdAdd            0      0.00%     56.37% # Type of FU issued
system.switch_cpus.iq.FU_type_0::SimdAddAcc            0      0.00%     56.37% # Type of FU issued
system.switch_cpus.iq.FU_type_0::SimdAlu       957673      5.20%     61.57% # Type of FU issued
system.switch_cpus.iq.FU_type_0::SimdCmp            0      0.00%     61.57% # Type of FU issued
system.switch_cpus.iq.FU_type_0::SimdCvt            0      0.00%     61.57% # Type of FU issued
system.switch_cpus.iq.FU_type_0::SimdMisc       895802      4.87%     66.44% # Type of FU issued
system.switch_cpus.iq.FU_type_0::SimdMult            0      0.00%     66.44% # Type of FU issued
system.switch_cpus.iq.FU_type_0::SimdMultAcc            0      0.00%     66.44% # Type of FU issued
system.switch_cpus.iq.FU_type_0::SimdShift            0      0.00%     66.44% # Type of FU issued
system.switch_cpus.iq.FU_type_0::SimdShiftAcc            0      0.00%     66.44% # Type of FU issued
system.switch_cpus.iq.FU_type_0::SimdDiv            0      0.00%     66.44% # Type of FU issued
system.switch_cpus.iq.FU_type_0::SimdSqrt            0      0.00%     66.44% # Type of FU issued
system.switch_cpus.iq.FU_type_0::SimdFloatAdd      1525736      8.29%     74.73% # Type of FU issued
system.switch_cpus.iq.FU_type_0::SimdFloatAlu            0      0.00%     74.73% # Type of FU issued
system.switch_cpus.iq.FU_type_0::SimdFloatCmp            0      0.00%     74.73% # Type of FU issued
system.switch_cpus.iq.FU_type_0::SimdFloatCvt       746252      4.05%     78.79% # Type of FU issued
system.switch_cpus.iq.FU_type_0::SimdFloatDiv            0      0.00%     78.79% # Type of FU issued
system.switch_cpus.iq.FU_type_0::SimdFloatMisc            0      0.00%     78.79% # Type of FU issued
system.switch_cpus.iq.FU_type_0::SimdFloatMult      1055962      5.74%     84.52% # Type of FU issued
system.switch_cpus.iq.FU_type_0::SimdFloatMultAcc            0      0.00%     84.52% # Type of FU issued
system.switch_cpus.iq.FU_type_0::SimdFloatSqrt            0      0.00%     84.52% # Type of FU issued
system.switch_cpus.iq.FU_type_0::SimdReduceAdd            0      0.00%     84.52% # Type of FU issued
system.switch_cpus.iq.FU_type_0::SimdReduceAlu            0      0.00%     84.52% # Type of FU issued
system.switch_cpus.iq.FU_type_0::SimdReduceCmp            0      0.00%     84.52% # Type of FU issued
system.switch_cpus.iq.FU_type_0::SimdFloatReduceAdd            0      0.00%     84.52% # Type of FU issued
system.switch_cpus.iq.FU_type_0::SimdFloatReduceCmp            0      0.00%     84.52% # Type of FU issued
system.switch_cpus.iq.FU_type_0::SimdAes            0      0.00%     84.52% # Type of FU issued
system.switch_cpus.iq.FU_type_0::SimdAesMix            0      0.00%     84.52% # Type of FU issued
system.switch_cpus.iq.FU_type_0::SimdSha1Hash            0      0.00%     84.52% # Type of FU issued
system.switch_cpus.iq.FU_type_0::SimdSha1Hash2            0      0.00%     84.52% # Type of FU issued
system.switch_cpus.iq.FU_type_0::SimdSha256Hash            0      0.00%     84.52% # Type of FU issued
system.switch_cpus.iq.FU_type_0::SimdSha256Hash2            0      0.00%     84.52% # Type of FU issued
system.switch_cpus.iq.FU_type_0::SimdShaSigma2            0      0.00%     84.52% # Type of FU issued
system.switch_cpus.iq.FU_type_0::SimdShaSigma3            0      0.00%     84.52% # Type of FU issued
system.switch_cpus.iq.FU_type_0::SimdPredAlu            0      0.00%     84.52% # Type of FU issued
system.switch_cpus.iq.FU_type_0::MemRead       653955      3.55%     88.08% # Type of FU issued
system.switch_cpus.iq.FU_type_0::MemWrite       460844      2.50%     90.58% # Type of FU issued
system.switch_cpus.iq.FU_type_0::FloatMemRead      1733678      9.42%    100.00% # Type of FU issued
system.switch_cpus.iq.FU_type_0::FloatMemWrite          129      0.00%    100.00% # Type of FU issued
system.switch_cpus.iq.FU_type_0::IprAccess            0      0.00%    100.00% # Type of FU issued
system.switch_cpus.iq.FU_type_0::InstPrefetch            0      0.00%    100.00% # Type of FU issued
system.switch_cpus.iq.FU_type_0::total       18405425                       # Type of FU issued
system.switch_cpus.iq.fp_alu_accesses         8006444                       # Number of floating point alu accesses
system.switch_cpus.iq.fp_inst_queue_reads     16012872                       # Number of floating instruction queue reads
system.switch_cpus.iq.fp_inst_queue_wakeup_accesses      7987269                       # Number of floating instruction queue wakeup accesses
system.switch_cpus.iq.fp_inst_queue_writes      8847500                       # Number of floating instruction queue writes
system.switch_cpus.iq.fu_busy_cnt              146096                       # FU busy when requested
system.switch_cpus.iq.fu_busy_rate           0.007938                       # FU busy rate (busy events/executed inst)
system.switch_cpus.iq.fu_full::No_OpClass            0      0.00%      0.00% # attempts to use FU when none available
system.switch_cpus.iq.fu_full::IntAlu          145904     99.87%     99.87% # attempts to use FU when none available
system.switch_cpus.iq.fu_full::IntMult              0      0.00%     99.87% # attempts to use FU when none available
system.switch_cpus.iq.fu_full::IntDiv               0      0.00%     99.87% # attempts to use FU when none available
system.switch_cpus.iq.fu_full::FloatAdd             0      0.00%     99.87% # attempts to use FU when none available
system.switch_cpus.iq.fu_full::FloatCmp             0      0.00%     99.87% # attempts to use FU when none available
system.switch_cpus.iq.fu_full::FloatCvt             0      0.00%     99.87% # attempts to use FU when none available
system.switch_cpus.iq.fu_full::FloatMult            0      0.00%     99.87% # attempts to use FU when none available
system.switch_cpus.iq.fu_full::FloatMultAcc            0      0.00%     99.87% # attempts to use FU when none available
system.switch_cpus.iq.fu_full::FloatDiv             0      0.00%     99.87% # attempts to use FU when none available
system.switch_cpus.iq.fu_full::FloatMisc            0      0.00%     99.87% # attempts to use FU when none available
system.switch_cpus.iq.fu_full::FloatSqrt            0      0.00%     99.87% # attempts to use FU when none available
system.switch_cpus.iq.fu_full::SimdAdd              0      0.00%     99.87% # attempts to use FU when none available
system.switch_cpus.iq.fu_full::SimdAddAcc            0      0.00%     99.87% # attempts to use FU when none available
system.switch_cpus.iq.fu_full::SimdAlu              0      0.00%     99.87% # attempts to use FU when none available
system.switch_cpus.iq.fu_full::SimdCmp              0      0.00%     99.87% # attempts to use FU when none available
system.switch_cpus.iq.fu_full::SimdCvt              0      0.00%     99.87% # attempts to use FU when none available
system.switch_cpus.iq.fu_full::SimdMisc             0      0.00%     99.87% # attempts to use FU when none available
system.switch_cpus.iq.fu_full::SimdMult             0      0.00%     99.87% # attempts to use FU when none available
system.switch_cpus.iq.fu_full::SimdMultAcc            0      0.00%     99.87% # attempts to use FU when none available
system.switch_cpus.iq.fu_full::SimdShift            0      0.00%     99.87% # attempts to use FU when none available
system.switch_cpus.iq.fu_full::SimdShiftAcc            0      0.00%     99.87% # attempts to use FU when none available
system.switch_cpus.iq.fu_full::SimdDiv              0      0.00%     99.87% # attempts to use FU when none available
system.switch_cpus.iq.fu_full::SimdSqrt             0      0.00%     99.87% # attempts to use FU when none available
system.switch_cpus.iq.fu_full::SimdFloatAdd            0      0.00%     99.87% # attempts to use FU when none available
system.switch_cpus.iq.fu_full::SimdFloatAlu            0      0.00%     99.87% # attempts to use FU when none available
system.switch_cpus.iq.fu_full::SimdFloatCmp            0      0.00%     99.87% # attempts to use FU when none available
system.switch_cpus.iq.fu_full::SimdFloatCvt            0      0.00%     99.87% # attempts to use FU when none available
system.switch_cpus.iq.fu_full::SimdFloatDiv            0      0.00%     99.87% # attempts to use FU when none available
system.switch_cpus.iq.fu_full::SimdFloatMisc            0      0.00%     99.87% # attempts to use FU when none available
system.switch_cpus.iq.fu_full::SimdFloatMult            0      0.00%     99.87% # attempts to use FU when none available
system.switch_cpus.iq.fu_full::SimdFloatMultAcc            0      0.00%     99.87% # attempts to use FU when none available
system.switch_cpus.iq.fu_full::SimdFloatSqrt            0      0.00%     99.87% # attempts to use FU when none available
system.switch_cpus.iq.fu_full::SimdReduceAdd            0      0.00%     99.87% # attempts to use FU when none available
system.switch_cpus.iq.fu_full::SimdReduceAlu            0      0.00%     99.87% # attempts to use FU when none available
system.switch_cpus.iq.fu_full::SimdReduceCmp            0      0.00%     99.87% # attempts to use FU when none available
system.switch_cpus.iq.fu_full::SimdFloatReduceAdd            0      0.00%     99.87% # attempts to use FU when none available
system.switch_cpus.iq.fu_full::SimdFloatReduceCmp            0      0.00%     99.87% # attempts to use FU when none available
system.switch_cpus.iq.fu_full::SimdAes              0      0.00%     99.87% # attempts to use FU when none available
system.switch_cpus.iq.fu_full::SimdAesMix            0      0.00%     99.87% # attempts to use FU when none available
system.switch_cpus.iq.fu_full::SimdSha1Hash            0      0.00%     99.87% # attempts to use FU when none available
system.switch_cpus.iq.fu_full::SimdSha1Hash2            0      0.00%     99.87% # attempts to use FU when none available
system.switch_cpus.iq.fu_full::SimdSha256Hash            0      0.00%     99.87% # attempts to use FU when none available
system.switch_cpus.iq.fu_full::SimdSha256Hash2            0      0.00%     99.87% # attempts to use FU when none available
system.switch_cpus.iq.fu_full::SimdShaSigma2            0      0.00%     99.87% # attempts to use FU when none available
system.switch_cpus.iq.fu_full::SimdShaSigma3            0      0.00%     99.87% # attempts to use FU when none available
system.switch_cpus.iq.fu_full::SimdPredAlu            0      0.00%     99.87% # attempts to use FU when none available
system.switch_cpus.iq.fu_full::MemRead            152      0.10%     99.97% # attempts to use FU when none available
system.switch_cpus.iq.fu_full::MemWrite            16      0.01%     99.98% # attempts to use FU when none available
system.switch_cpus.iq.fu_full::FloatMemRead            0      0.00%     99.98% # attempts to use FU when none available
system.switch_cpus.iq.fu_full::FloatMemWrite           24      0.02%    100.00% # attempts to use FU when none available
system.switch_cpus.iq.fu_full::IprAccess            0      0.00%    100.00% # attempts to use FU when none available
system.switch_cpus.iq.fu_full::InstPrefetch            0      0.00%    100.00% # attempts to use FU when none available
system.switch_cpus.iq.int_alu_accesses       10223206                       # Number of integer alu accesses
system.switch_cpus.iq.int_inst_queue_reads     26251212                       # Number of integer instruction queue reads
system.switch_cpus.iq.int_inst_queue_wakeup_accesses     10376280                       # Number of integer instruction queue wakeup accesses
system.switch_cpus.iq.int_inst_queue_writes     11340585                       # Number of integer instruction queue writes
system.switch_cpus.iq.iqInstsAdded           18900605                       # Number of instructions added to the IQ (excludes non-spec)
system.switch_cpus.iq.iqInstsIssued          18405425                       # Number of instructions issued
system.switch_cpus.iq.iqSquashedInstsExamined      1287464                       # Number of squashed instructions iterated over during squash; mainly for profiling
system.switch_cpus.iq.iqSquashedInstsIssued          124                       # Number of squashed instructions issued
system.switch_cpus.iq.iqSquashedOperandsExamined      1503140                       # Number of squashed operands that are examined and possibly removed from graph
system.switch_cpus.iq.issued_per_cycle::samples      5307016                       # Number of insts issued each cycle
system.switch_cpus.iq.issued_per_cycle::mean     3.468131                       # Number of insts issued each cycle
system.switch_cpus.iq.issued_per_cycle::stdev     2.063954                       # Number of insts issued each cycle
system.switch_cpus.iq.issued_per_cycle::underflows            0      0.00%      0.00% # Number of insts issued each cycle
system.switch_cpus.iq.issued_per_cycle::0       356226      6.71%      6.71% # Number of insts issued each cycle
system.switch_cpus.iq.issued_per_cycle::1       638861     12.04%     18.75% # Number of insts issued each cycle
system.switch_cpus.iq.issued_per_cycle::2       938944     17.69%     36.44% # Number of insts issued each cycle
system.switch_cpus.iq.issued_per_cycle::3       909042     17.13%     53.57% # Number of insts issued each cycle
system.switch_cpus.iq.issued_per_cycle::4       807482     15.22%     68.79% # Number of insts issued each cycle
system.switch_cpus.iq.issued_per_cycle::5       580502     10.94%     79.73% # Number of insts issued each cycle
system.switch_cpus.iq.issued_per_cycle::6       624281     11.76%     91.49% # Number of insts issued each cycle
system.switch_cpus.iq.issued_per_cycle::7       329998      6.22%     97.71% # Number of insts issued each cycle
system.switch_cpus.iq.issued_per_cycle::8       121680      2.29%    100.00% # Number of insts issued each cycle
system.switch_cpus.iq.issued_per_cycle::overflows            0      0.00%    100.00% # Number of insts issued each cycle
system.switch_cpus.iq.issued_per_cycle::min_value            0                       # Number of insts issued each cycle
system.switch_cpus.iq.issued_per_cycle::max_value            8                       # Number of insts issued each cycle
system.switch_cpus.iq.issued_per_cycle::total      5307016                       # Number of insts issued each cycle
system.switch_cpus.iq.rate                   3.467933                       # Inst issue rate
system.switch_cpus.iq.vec_alu_accesses              0                       # Number of vector alu accesses
system.switch_cpus.iq.vec_inst_queue_reads            0                       # Number of vector instruction queue reads
system.switch_cpus.iq.vec_inst_queue_wakeup_accesses            0                       # Number of vector instruction queue wakeup accesses
system.switch_cpus.iq.vec_inst_queue_writes            0                       # Number of vector instruction queue writes
system.switch_cpus.memDep0.conflictingLoads           18                       # Number of conflicting loads.
system.switch_cpus.memDep0.conflictingStores           56                       # Number of conflicting stores.
system.switch_cpus.memDep0.insertedLoads      2406130                       # Number of loads inserted to the mem dependence unit.
system.switch_cpus.memDep0.insertedStores       484239                       # Number of stores inserted to the mem dependence unit.
system.switch_cpus.misc_regfile_reads         6337457                       # number of misc regfile reads
system.switch_cpus.numCycles                  5307319                       # number of cpu cycles simulated
system.switch_cpus.numWorkItemsCompleted            0                       # number of work items this cpu completed
system.switch_cpus.numWorkItemsStarted              0                       # number of work items this cpu started
system.switch_cpus.timesIdled                       6                       # Number of times that the entire CPU went into an idle state and unscheduled itself
system.tol2bus.snoop_filter.hit_multi_requests            3                       # Number of requests hitting in the snoop filter with multiple (>1) holders of the requested data.
system.tol2bus.snoop_filter.hit_multi_snoops            0                       # Number of snoops hitting in the snoop filter with multiple (>1) holders of the requested data.
system.tol2bus.snoop_filter.hit_single_requests         9691                       # Number of requests hitting in the snoop filter with a single holder of the requested data.
system.tol2bus.snoop_filter.hit_single_snoops          981                       # Number of snoops hitting in the snoop filter with a single holder of the requested data.
system.tol2bus.snoop_filter.tot_requests        19383                       # Total number of requests made to the snoop filter.
system.tol2bus.snoop_filter.tot_snoops            981                       # Total number of snoops made to the snoop filter.
system.clk_domain.clock                          1000                       # Clock period in ticks
system.cpu.branchPred.lookups                       0                       # Number of BP lookups
system.cpu.branchPred.condPredicted                 0                       # Number of conditional branches predicted
system.cpu.branchPred.condIncorrect                 0                       # Number of conditional branches incorrect
system.cpu.branchPred.BTBLookups                    0                       # Number of BTB lookups
system.cpu.branchPred.BTBHits                       0                       # Number of BTB hits
system.cpu.branchPred.BTBHitPct                   nan                       # BTB Hit Percentage
system.cpu.branchPred.RASUsed                       0                       # Number of times the RAS was used to get a target.
system.cpu.branchPred.RASIncorrect                  0                       # Number of incorrect RAS predictions.
system.cpu.branchPred.indirectLookups               0                       # Number of indirect predictor lookups.
system.cpu.branchPred.indirectHits                  0                       # Number of indirect target hits.
system.cpu.branchPred.indirectMisses                0                       # Number of indirect misses.
system.cpu.branchPred.indirectMispredicted            0                       # Number of mispredicted indirect branches.
system.cpu.dcache.demand_hits::.switch_cpus.data      2664588                       # number of demand (read+write) hits
system.cpu.dcache.demand_hits::total          2664588                       # number of demand (read+write) hits
system.cpu.dcache.overall_hits::.switch_cpus.data      2664588                       # number of overall hits
system.cpu.dcache.overall_hits::total         2664588                       # number of overall hits
system.cpu.dcache.demand_misses::.switch_cpus.data         9846                       # number of demand (read+write) misses
system.cpu.dcache.demand_misses::total           9846                       # number of demand (read+write) misses
system.cpu.dcache.overall_misses::.switch_cpus.data         9846                       # number of overall misses
system.cpu.dcache.overall_misses::total          9846                       # number of overall misses
system.cpu.dcache.demand_miss_latency::.switch_cpus.data    757598495                       # number of demand (read+write) miss cycles
system.cpu.dcache.demand_miss_latency::total    757598495                       # number of demand (read+write) miss cycles
system.cpu.dcache.overall_miss_latency::.switch_cpus.data    757598495                       # number of overall miss cycles
system.cpu.dcache.overall_miss_latency::total    757598495                       # number of overall miss cycles
system.cpu.dcache.demand_accesses::.switch_cpus.data      2674434                       # number of demand (read+write) accesses
system.cpu.dcache.demand_accesses::total      2674434                       # number of demand (read+write) accesses
system.cpu.dcache.overall_accesses::.switch_cpus.data      2674434                       # number of overall (read+write) accesses
system.cpu.dcache.overall_accesses::total      2674434                       # number of overall (read+write) accesses
system.cpu.dcache.demand_miss_rate::.switch_cpus.data     0.003682                       # miss rate for demand accesses
system.cpu.dcache.demand_miss_rate::total     0.003682                       # miss rate for demand accesses
system.cpu.dcache.overall_miss_rate::.switch_cpus.data     0.003682                       # miss rate for overall accesses
system.cpu.dcache.overall_miss_rate::total     0.003682                       # miss rate for overall accesses
system.cpu.dcache.demand_avg_miss_latency::.switch_cpus.data 76944.799411                       # average overall miss latency
system.cpu.dcache.demand_avg_miss_latency::total 76944.799411                       # average overall miss latency
system.cpu.dcache.overall_avg_miss_latency::.switch_cpus.data 76944.799411                       # average overall miss latency
system.cpu.dcache.overall_avg_miss_latency::total 76944.799411                       # average overall miss latency
system.cpu.dcache.blocked_cycles::no_mshrs          635                       # number of cycles access was blocked
system.cpu.dcache.blocked_cycles::no_targets            0                       # number of cycles access was blocked
system.cpu.dcache.blocked::no_mshrs                83                       # number of cycles access was blocked
system.cpu.dcache.blocked::no_targets               0                       # number of cycles access was blocked
system.cpu.dcache.avg_blocked_cycles::no_mshrs     7.650602                       # average number of cycles each access was blocked
system.cpu.dcache.avg_blocked_cycles::no_targets          nan                       # average number of cycles each access was blocked
system.cpu.dcache.writebacks::.writebacks         9572                       # number of writebacks
system.cpu.dcache.writebacks::total              9572                       # number of writebacks
system.cpu.dcache.demand_mshr_hits::.switch_cpus.data          190                       # number of demand (read+write) MSHR hits
system.cpu.dcache.demand_mshr_hits::total          190                       # number of demand (read+write) MSHR hits
system.cpu.dcache.overall_mshr_hits::.switch_cpus.data          190                       # number of overall MSHR hits
system.cpu.dcache.overall_mshr_hits::total          190                       # number of overall MSHR hits
system.cpu.dcache.demand_mshr_misses::.switch_cpus.data         9656                       # number of demand (read+write) MSHR misses
system.cpu.dcache.demand_mshr_misses::total         9656                       # number of demand (read+write) MSHR misses
system.cpu.dcache.overall_mshr_misses::.switch_cpus.data         9656                       # number of overall MSHR misses
system.cpu.dcache.overall_mshr_misses::total         9656                       # number of overall MSHR misses
system.cpu.dcache.demand_mshr_miss_latency::.switch_cpus.data    745789495                       # number of demand (read+write) MSHR miss cycles
system.cpu.dcache.demand_mshr_miss_latency::total    745789495                       # number of demand (read+write) MSHR miss cycles
system.cpu.dcache.overall_mshr_miss_latency::.switch_cpus.data    745789495                       # number of overall MSHR miss cycles
system.cpu.dcache.overall_mshr_miss_latency::total    745789495                       # number of overall MSHR miss cycles
system.cpu.dcache.demand_mshr_miss_rate::.switch_cpus.data     0.003610                       # mshr miss rate for demand accesses
system.cpu.dcache.demand_mshr_miss_rate::total     0.003610                       # mshr miss rate for demand accesses
system.cpu.dcache.overall_mshr_miss_rate::.switch_cpus.data     0.003610                       # mshr miss rate for overall accesses
system.cpu.dcache.overall_mshr_miss_rate::total     0.003610                       # mshr miss rate for overall accesses
system.cpu.dcache.demand_avg_mshr_miss_latency::.switch_cpus.data 77235.863194                       # average overall mshr miss latency
system.cpu.dcache.demand_avg_mshr_miss_latency::total 77235.863194                       # average overall mshr miss latency
system.cpu.dcache.overall_avg_mshr_miss_latency::.switch_cpus.data 77235.863194                       # average overall mshr miss latency
system.cpu.dcache.overall_avg_mshr_miss_latency::total 77235.863194                       # average overall mshr miss latency
system.cpu.dcache.replacements                   9655                       # number of replacements
system.cpu.dcache.ReadReq_hits::.switch_cpus.data      2225253                       # number of ReadReq hits
system.cpu.dcache.ReadReq_hits::total         2225253                       # number of ReadReq hits
system.cpu.dcache.ReadReq_misses::.switch_cpus.data          426                       # number of ReadReq misses
system.cpu.dcache.ReadReq_misses::total           426                       # number of ReadReq misses
system.cpu.dcache.ReadReq_miss_latency::.switch_cpus.data      5701000                       # number of ReadReq miss cycles
system.cpu.dcache.ReadReq_miss_latency::total      5701000                       # number of ReadReq miss cycles
system.cpu.dcache.ReadReq_accesses::.switch_cpus.data      2225679                       # number of ReadReq accesses(hits+misses)
system.cpu.dcache.ReadReq_accesses::total      2225679                       # number of ReadReq accesses(hits+misses)
system.cpu.dcache.ReadReq_miss_rate::.switch_cpus.data     0.000191                       # miss rate for ReadReq accesses
system.cpu.dcache.ReadReq_miss_rate::total     0.000191                       # miss rate for ReadReq accesses
system.cpu.dcache.ReadReq_avg_miss_latency::.switch_cpus.data 13382.629108                       # average ReadReq miss latency
system.cpu.dcache.ReadReq_avg_miss_latency::total 13382.629108                       # average ReadReq miss latency
system.cpu.dcache.ReadReq_mshr_hits::.switch_cpus.data          188                       # number of ReadReq MSHR hits
system.cpu.dcache.ReadReq_mshr_hits::total          188                       # number of ReadReq MSHR hits
system.cpu.dcache.ReadReq_mshr_misses::.switch_cpus.data          238                       # number of ReadReq MSHR misses
system.cpu.dcache.ReadReq_mshr_misses::total          238                       # number of ReadReq MSHR misses
system.cpu.dcache.ReadReq_mshr_miss_latency::.switch_cpus.data      3323000                       # number of ReadReq MSHR miss cycles
system.cpu.dcache.ReadReq_mshr_miss_latency::total      3323000                       # number of ReadReq MSHR miss cycles
system.cpu.dcache.ReadReq_mshr_miss_rate::.switch_cpus.data     0.000107                       # mshr miss rate for ReadReq accesses
system.cpu.dcache.ReadReq_mshr_miss_rate::total     0.000107                       # mshr miss rate for ReadReq accesses
system.cpu.dcache.ReadReq_avg_mshr_miss_latency::.switch_cpus.data 13962.184874                       # average ReadReq mshr miss latency
system.cpu.dcache.ReadReq_avg_mshr_miss_latency::total 13962.184874                       # average ReadReq mshr miss latency
system.cpu.dcache.WriteReq_hits::.switch_cpus.data       439335                       # number of WriteReq hits
system.cpu.dcache.WriteReq_hits::total         439335                       # number of WriteReq hits
system.cpu.dcache.WriteReq_misses::.switch_cpus.data         9420                       # number of WriteReq misses
system.cpu.dcache.WriteReq_misses::total         9420                       # number of WriteReq misses
system.cpu.dcache.WriteReq_miss_latency::.switch_cpus.data    751897495                       # number of WriteReq miss cycles
system.cpu.dcache.WriteReq_miss_latency::total    751897495                       # number of WriteReq miss cycles
system.cpu.dcache.WriteReq_accesses::.switch_cpus.data       448755                       # number of WriteReq accesses(hits+misses)
system.cpu.dcache.WriteReq_accesses::total       448755                       # number of WriteReq accesses(hits+misses)
system.cpu.dcache.WriteReq_miss_rate::.switch_cpus.data     0.020991                       # miss rate for WriteReq accesses
system.cpu.dcache.WriteReq_miss_rate::total     0.020991                       # miss rate for WriteReq accesses
system.cpu.dcache.WriteReq_avg_miss_latency::.switch_cpus.data 79819.266985                       # average WriteReq miss latency
system.cpu.dcache.WriteReq_avg_miss_latency::total 79819.266985                       # average WriteReq miss latency
system.cpu.dcache.WriteReq_mshr_hits::.switch_cpus.data            2                       # number of WriteReq MSHR hits
system.cpu.dcache.WriteReq_mshr_hits::total            2                       # number of WriteReq MSHR hits
system.cpu.dcache.WriteReq_mshr_misses::.switch_cpus.data         9418                       # number of WriteReq MSHR misses
system.cpu.dcache.WriteReq_mshr_misses::total         9418                       # number of WriteReq MSHR misses
system.cpu.dcache.WriteReq_mshr_miss_latency::.switch_cpus.data    742466495                       # number of WriteReq MSHR miss cycles
system.cpu.dcache.WriteReq_mshr_miss_latency::total    742466495                       # number of WriteReq MSHR miss cycles
system.cpu.dcache.WriteReq_mshr_miss_rate::.switch_cpus.data     0.020987                       # mshr miss rate for WriteReq accesses
system.cpu.dcache.WriteReq_mshr_miss_rate::total     0.020987                       # mshr miss rate for WriteReq accesses
system.cpu.dcache.WriteReq_avg_mshr_miss_latency::.switch_cpus.data 78834.837014                       # average WriteReq mshr miss latency
system.cpu.dcache.WriteReq_avg_mshr_miss_latency::total 78834.837014                       # average WriteReq mshr miss latency
system.cpu.dcache.power_state.pwrStateResidencyTicks::UNDEFINED   4035433500                       # Cumulative time (in ticks) in various power states
system.cpu.dcache.tags.tagsinuse                 1024                       # Cycle average of tags in use
system.cpu.dcache.tags.total_refs             2850476                       # Total number of references to valid blocks.
system.cpu.dcache.tags.sampled_refs             10679                       # Sample count of references to valid blocks.
system.cpu.dcache.tags.avg_refs            266.923495                       # Average number of references to valid blocks.
system.cpu.dcache.tags.warmup_cycle                 0                       # Cycle when the warmup percentage was hit.
system.cpu.dcache.tags.occ_blocks::.cpu.data    62.531178                       # Average occupied blocks per requestor
system.cpu.dcache.tags.occ_blocks::.switch_cpus.data   961.468822                       # Average occupied blocks per requestor
system.cpu.dcache.tags.occ_percent::.cpu.data     0.061066                       # Average percentage of cache occupancy
system.cpu.dcache.tags.occ_percent::.switch_cpus.data     0.938934                       # Average percentage of cache occupancy
system.cpu.dcache.tags.occ_percent::total            1                       # Average percentage of cache occupancy
system.cpu.dcache.tags.occ_task_id_blocks::1024         1024                       # Occupied blocks per task id
system.cpu.dcache.tags.age_task_id_blocks_1024::0           29                       # Occupied blocks per task id
system.cpu.dcache.tags.age_task_id_blocks_1024::1          278                       # Occupied blocks per task id
system.cpu.dcache.tags.age_task_id_blocks_1024::2          707                       # Occupied blocks per task id
system.cpu.dcache.tags.age_task_id_blocks_1024::3           10                       # Occupied blocks per task id
system.cpu.dcache.tags.occ_task_id_percent::1024            1                       # Percentage of cache occupancy per task id
system.cpu.dcache.tags.tag_accesses           5358523                       # Number of tag accesses
system.cpu.dcache.tags.data_accesses          5358523                       # Number of data accesses
system.cpu.dcache.tags.power_state.pwrStateResidencyTicks::UNDEFINED   4035433500                       # Cumulative time (in ticks) in various power states
system.cpu.dtb.rdAccesses                           0                       # TLB accesses on read requests
system.cpu.dtb.wrAccesses                           0                       # TLB accesses on write requests
system.cpu.dtb.rdMisses                             0                       # TLB misses on read requests
system.cpu.dtb.wrMisses                             0                       # TLB misses on write requests
system.cpu.dtb.walker.power_state.pwrStateResidencyTicks::UNDEFINED   4035433500                       # Cumulative time (in ticks) in various power states
system.cpu.dtb_walker_cache.blocked_cycles::no_mshrs            0                       # number of cycles access was blocked
system.cpu.dtb_walker_cache.blocked_cycles::no_targets            0                       # number of cycles access was blocked
system.cpu.dtb_walker_cache.blocked::no_mshrs            0                       # number of cycles access was blocked
system.cpu.dtb_walker_cache.blocked::no_targets            0                       # number of cycles access was blocked
system.cpu.dtb_walker_cache.avg_blocked_cycles::no_mshrs          nan                       # average number of cycles each access was blocked
system.cpu.dtb_walker_cache.avg_blocked_cycles::no_targets          nan                       # average number of cycles each access was blocked
system.cpu.dtb_walker_cache.replacements            0                       # number of replacements
system.cpu.dtb_walker_cache.power_state.pwrStateResidencyTicks::UNDEFINED   4035433500                       # Cumulative time (in ticks) in various power states
system.cpu.dtb_walker_cache.tags.tagsinuse            0                       # Cycle average of tags in use
system.cpu.dtb_walker_cache.tags.total_refs            0                       # Total number of references to valid blocks.
system.cpu.dtb_walker_cache.tags.sampled_refs            0                       # Sample count of references to valid blocks.
system.cpu.dtb_walker_cache.tags.avg_refs          nan                       # Average number of references to valid blocks.
system.cpu.dtb_walker_cache.tags.warmup_cycle            0                       # Cycle when the warmup percentage was hit.
system.cpu.dtb_walker_cache.tags.tag_accesses            0                       # Number of tag accesses
system.cpu.dtb_walker_cache.tags.data_accesses            0                       # Number of data accesses
system.cpu.dtb_walker_cache.tags.power_state.pwrStateResidencyTicks::UNDEFINED   4035433500                       # Cumulative time (in ticks) in various power states
system.cpu.icache.demand_hits::.switch_cpus.inst      1325480                       # number of demand (read+write) hits
system.cpu.icache.demand_hits::total          1325480                       # number of demand (read+write) hits
system.cpu.icache.overall_hits::.switch_cpus.inst      1325480                       # number of overall hits
system.cpu.icache.overall_hits::total         1325480                       # number of overall hits
system.cpu.icache.demand_misses::.switch_cpus.inst           53                       # number of demand (read+write) misses
system.cpu.icache.demand_misses::total             53                       # number of demand (read+write) misses
system.cpu.icache.overall_misses::.switch_cpus.inst           53                       # number of overall misses
system.cpu.icache.overall_misses::total            53                       # number of overall misses
system.cpu.icache.demand_miss_latency::.switch_cpus.inst      3322000                       # number of demand (read+write) miss cycles
system.cpu.icache.demand_miss_latency::total      3322000                       # number of demand (read+write) miss cycles
system.cpu.icache.overall_miss_latency::.switch_cpus.inst      3322000                       # number of overall miss cycles
system.cpu.icache.overall_miss_latency::total      3322000                       # number of overall miss cycles
system.cpu.icache.demand_accesses::.switch_cpus.inst      1325533                       # number of demand (read+write) accesses
system.cpu.icache.demand_accesses::total      1325533                       # number of demand (read+write) accesses
system.cpu.icache.overall_accesses::.switch_cpus.inst      1325533                       # number of overall (read+write) accesses
system.cpu.icache.overall_accesses::total      1325533                       # number of overall (read+write) accesses
system.cpu.icache.demand_miss_rate::.switch_cpus.inst     0.000040                       # miss rate for demand accesses
system.cpu.icache.demand_miss_rate::total     0.000040                       # miss rate for demand accesses
system.cpu.icache.overall_miss_rate::.switch_cpus.inst     0.000040                       # miss rate for overall accesses
system.cpu.icache.overall_miss_rate::total     0.000040                       # miss rate for overall accesses
system.cpu.icache.demand_avg_miss_latency::.switch_cpus.inst 62679.245283                       # average overall miss latency
system.cpu.icache.demand_avg_miss_latency::total 62679.245283                       # average overall miss latency
system.cpu.icache.overall_avg_miss_latency::.switch_cpus.inst 62679.245283                       # average overall miss latency
system.cpu.icache.overall_avg_miss_latency::total 62679.245283                       # average overall miss latency
system.cpu.icache.blocked_cycles::no_mshrs           30                       # number of cycles access was blocked
system.cpu.icache.blocked_cycles::no_targets            0                       # number of cycles access was blocked
system.cpu.icache.blocked::no_mshrs                 2                       # number of cycles access was blocked
system.cpu.icache.blocked::no_targets               0                       # number of cycles access was blocked
system.cpu.icache.avg_blocked_cycles::no_mshrs           15                       # average number of cycles each access was blocked
system.cpu.icache.avg_blocked_cycles::no_targets          nan                       # average number of cycles each access was blocked
system.cpu.icache.writebacks::.writebacks           35                       # number of writebacks
system.cpu.icache.writebacks::total                35                       # number of writebacks
system.cpu.icache.demand_mshr_hits::.switch_cpus.inst           16                       # number of demand (read+write) MSHR hits
system.cpu.icache.demand_mshr_hits::total           16                       # number of demand (read+write) MSHR hits
system.cpu.icache.overall_mshr_hits::.switch_cpus.inst           16                       # number of overall MSHR hits
system.cpu.icache.overall_mshr_hits::total           16                       # number of overall MSHR hits
system.cpu.icache.demand_mshr_misses::.switch_cpus.inst           37                       # number of demand (read+write) MSHR misses
system.cpu.icache.demand_mshr_misses::total           37                       # number of demand (read+write) MSHR misses
system.cpu.icache.overall_mshr_misses::.switch_cpus.inst           37                       # number of overall MSHR misses
system.cpu.icache.overall_mshr_misses::total           37                       # number of overall MSHR misses
system.cpu.icache.demand_mshr_miss_latency::.switch_cpus.inst      2462000                       # number of demand (read+write) MSHR miss cycles
system.cpu.icache.demand_mshr_miss_latency::total      2462000                       # number of demand (read+write) MSHR miss cycles
system.cpu.icache.overall_mshr_miss_latency::.switch_cpus.inst      2462000                       # number of overall MSHR miss cycles
system.cpu.icache.overall_mshr_miss_latency::total      2462000                       # number of overall MSHR miss cycles
system.cpu.icache.demand_mshr_miss_rate::.switch_cpus.inst     0.000028                       # mshr miss rate for demand accesses
system.cpu.icache.demand_mshr_miss_rate::total     0.000028                       # mshr miss rate for demand accesses
system.cpu.icache.overall_mshr_miss_rate::.switch_cpus.inst     0.000028                       # mshr miss rate for overall accesses
system.cpu.icache.overall_mshr_miss_rate::total     0.000028                       # mshr miss rate for overall accesses
system.cpu.icache.demand_avg_mshr_miss_latency::.switch_cpus.inst 66540.540541                       # average overall mshr miss latency
system.cpu.icache.demand_avg_mshr_miss_latency::total 66540.540541                       # average overall mshr miss latency
system.cpu.icache.overall_avg_mshr_miss_latency::.switch_cpus.inst 66540.540541                       # average overall mshr miss latency
system.cpu.icache.overall_avg_mshr_miss_latency::total 66540.540541                       # average overall mshr miss latency
system.cpu.icache.replacements                     35                       # number of replacements
system.cpu.icache.ReadReq_hits::.switch_cpus.inst      1325480                       # number of ReadReq hits
system.cpu.icache.ReadReq_hits::total         1325480                       # number of ReadReq hits
system.cpu.icache.ReadReq_misses::.switch_cpus.inst           53                       # number of ReadReq misses
system.cpu.icache.ReadReq_misses::total            53                       # number of ReadReq misses
system.cpu.icache.ReadReq_miss_latency::.switch_cpus.inst      3322000                       # number of ReadReq miss cycles
system.cpu.icache.ReadReq_miss_latency::total      3322000                       # number of ReadReq miss cycles
system.cpu.icache.ReadReq_accesses::.switch_cpus.inst      1325533                       # number of ReadReq accesses(hits+misses)
system.cpu.icache.ReadReq_accesses::total      1325533                       # number of ReadReq accesses(hits+misses)
system.cpu.icache.ReadReq_miss_rate::.switch_cpus.inst     0.000040                       # miss rate for ReadReq accesses
system.cpu.icache.ReadReq_miss_rate::total     0.000040                       # miss rate for ReadReq accesses
system.cpu.icache.ReadReq_avg_miss_latency::.switch_cpus.inst 62679.245283                       # average ReadReq miss latency
system.cpu.icache.ReadReq_avg_miss_latency::total 62679.245283                       # average ReadReq miss latency
system.cpu.icache.ReadReq_mshr_hits::.switch_cpus.inst           16                       # number of ReadReq MSHR hits
system.cpu.icache.ReadReq_mshr_hits::total           16                       # number of ReadReq MSHR hits
system.cpu.icache.ReadReq_mshr_misses::.switch_cpus.inst           37                       # number of ReadReq MSHR misses
system.cpu.icache.ReadReq_mshr_misses::total           37                       # number of ReadReq MSHR misses
system.cpu.icache.ReadReq_mshr_miss_latency::.switch_cpus.inst      2462000                       # number of ReadReq MSHR miss cycles
system.cpu.icache.ReadReq_mshr_miss_latency::total      2462000                       # number of ReadReq MSHR miss cycles
system.cpu.icache.ReadReq_mshr_miss_rate::.switch_cpus.inst     0.000028                       # mshr miss rate for ReadReq accesses
system.cpu.icache.ReadReq_mshr_miss_rate::total     0.000028                       # mshr miss rate for ReadReq accesses
system.cpu.icache.ReadReq_avg_mshr_miss_latency::.switch_cpus.inst 66540.540541                       # average ReadReq mshr miss latency
system.cpu.icache.ReadReq_avg_mshr_miss_latency::total 66540.540541                       # average ReadReq mshr miss latency
system.cpu.icache.power_state.pwrStateResidencyTicks::UNDEFINED   4035433500                       # Cumulative time (in ticks) in various power states
system.cpu.icache.tags.tagsinuse           973.621800                       # Cycle average of tags in use
system.cpu.icache.tags.total_refs             2461661                       # Total number of references to valid blocks.
system.cpu.icache.tags.sampled_refs              1009                       # Sample count of references to valid blocks.
system.cpu.icache.tags.avg_refs           2439.703667                       # Average number of references to valid blocks.
system.cpu.icache.tags.warmup_cycle                 0                       # Cycle when the warmup percentage was hit.
system.cpu.icache.tags.occ_blocks::.cpu.inst   946.165171                       # Average occupied blocks per requestor
system.cpu.icache.tags.occ_blocks::.switch_cpus.inst    27.456629                       # Average occupied blocks per requestor
system.cpu.icache.tags.occ_percent::.cpu.inst     0.923989                       # Average percentage of cache occupancy
system.cpu.icache.tags.occ_percent::.switch_cpus.inst     0.026813                       # Average percentage of cache occupancy
system.cpu.icache.tags.occ_percent::total     0.950803                       # Average percentage of cache occupancy
system.cpu.icache.tags.occ_task_id_blocks::1024          974                       # Occupied blocks per task id
system.cpu.icache.tags.age_task_id_blocks_1024::2            5                       # Occupied blocks per task id
system.cpu.icache.tags.age_task_id_blocks_1024::3          969                       # Occupied blocks per task id
system.cpu.icache.tags.occ_task_id_percent::1024     0.951172                       # Percentage of cache occupancy per task id
system.cpu.icache.tags.tag_accesses           2651103                       # Number of tag accesses
system.cpu.icache.tags.data_accesses          2651103                       # Number of data accesses
system.cpu.icache.tags.power_state.pwrStateResidencyTicks::UNDEFINED   4035433500                       # Cumulative time (in ticks) in various power states
system.cpu.interrupts.clk_domain.clock           8000                       # Clock period in ticks
system.cpu.itb.rdAccesses                           0                       # TLB accesses on read requests
system.cpu.itb.wrAccesses                           0                       # TLB accesses on write requests
system.cpu.itb.rdMisses                             0                       # TLB misses on read requests
system.cpu.itb.wrMisses                             0                       # TLB misses on write requests
system.cpu.itb.walker.power_state.pwrStateResidencyTicks::UNDEFINED   4035433500                       # Cumulative time (in ticks) in various power states
system.cpu.itb_walker_cache.blocked_cycles::no_mshrs            0                       # number of cycles access was blocked
system.cpu.itb_walker_cache.blocked_cycles::no_targets            0                       # number of cycles access was blocked
system.cpu.itb_walker_cache.blocked::no_mshrs            0                       # number of cycles access was blocked
system.cpu.itb_walker_cache.blocked::no_targets            0                       # number of cycles access was blocked
system.cpu.itb_walker_cache.avg_blocked_cycles::no_mshrs          nan                       # average number of cycles each access was blocked
system.cpu.itb_walker_cache.avg_blocked_cycles::no_targets          nan                       # average number of cycles each access was blocked
system.cpu.itb_walker_cache.replacements            0                       # number of replacements
system.cpu.itb_walker_cache.power_state.pwrStateResidencyTicks::UNDEFINED   4035433500                       # Cumulative time (in ticks) in various power states
system.cpu.itb_walker_cache.tags.tagsinuse            0                       # Cycle average of tags in use
system.cpu.itb_walker_cache.tags.total_refs            0                       # Total number of references to valid blocks.
system.cpu.itb_walker_cache.tags.sampled_refs            0                       # Sample count of references to valid blocks.
system.cpu.itb_walker_cache.tags.avg_refs          nan                       # Average number of references to valid blocks.
system.cpu.itb_walker_cache.tags.warmup_cycle            0                       # Cycle when the warmup percentage was hit.
system.cpu.itb_walker_cache.tags.tag_accesses            0                       # Number of tag accesses
system.cpu.itb_walker_cache.tags.data_accesses            0                       # Number of data accesses
system.cpu.itb_walker_cache.tags.power_state.pwrStateResidencyTicks::UNDEFINED   4035433500                       # Cumulative time (in ticks) in various power states
system.cpu.power_state.pwrStateResidencyTicks::OFF   2653659500                       # Cumulative time (in ticks) in various power states
system.cpu.thread_0.numInsts                        0                       # Number of Instructions committed
system.cpu.thread_0.numOps                          0                       # Number of Ops committed
system.cpu.thread_0.numMemRefs                      0                       # Number of Memory References
system.cpu_clk_domain.clock                       500                       # Clock period in ticks
system.cpu_voltage_domain.voltage                   1                       # Voltage in Volts
system.l2.demand_hits::.switch_cpus.inst            7                       # number of demand (read+write) hits
system.l2.demand_hits::.switch_cpus.data          293                       # number of demand (read+write) hits
system.l2.demand_hits::total                      300                       # number of demand (read+write) hits
system.l2.overall_hits::.switch_cpus.inst            7                       # number of overall hits
system.l2.overall_hits::.switch_cpus.data          293                       # number of overall hits
system.l2.overall_hits::total                     300                       # number of overall hits
system.l2.demand_misses::.switch_cpus.inst           30                       # number of demand (read+write) misses
system.l2.demand_misses::.switch_cpus.data         9363                       # number of demand (read+write) misses
system.l2.demand_misses::total                   9393                       # number of demand (read+write) misses
system.l2.overall_misses::.switch_cpus.inst           30                       # number of overall misses
system.l2.overall_misses::.switch_cpus.data         9363                       # number of overall misses
system.l2.overall_misses::total                  9393                       # number of overall misses
system.l2.demand_miss_latency::.switch_cpus.inst      2329000                       # number of demand (read+write) miss cycles
system.l2.demand_miss_latency::.switch_cpus.data    728145000                       # number of demand (read+write) miss cycles
system.l2.demand_miss_latency::total        730474000                       # number of demand (read+write) miss cycles
system.l2.overall_miss_latency::.switch_cpus.inst      2329000                       # number of overall miss cycles
system.l2.overall_miss_latency::.switch_cpus.data    728145000                       # number of overall miss cycles
system.l2.overall_miss_latency::total       730474000                       # number of overall miss cycles
system.l2.demand_accesses::.switch_cpus.inst           37                       # number of demand (read+write) accesses
system.l2.demand_accesses::.switch_cpus.data         9656                       # number of demand (read+write) accesses
system.l2.demand_accesses::total                 9693                       # number of demand (read+write) accesses
system.l2.overall_accesses::.switch_cpus.inst           37                       # number of overall (read+write) accesses
system.l2.overall_accesses::.switch_cpus.data         9656                       # number of overall (read+write) accesses
system.l2.overall_accesses::total                9693                       # number of overall (read+write) accesses
system.l2.demand_miss_rate::.switch_cpus.inst     0.810811                       # miss rate for demand accesses
system.l2.demand_miss_rate::.switch_cpus.data     0.969656                       # miss rate for demand accesses
system.l2.demand_miss_rate::total            0.969050                       # miss rate for demand accesses
system.l2.overall_miss_rate::.switch_cpus.inst     0.810811                       # miss rate for overall accesses
system.l2.overall_miss_rate::.switch_cpus.data     0.969656                       # miss rate for overall accesses
system.l2.overall_miss_rate::total           0.969050                       # miss rate for overall accesses
system.l2.demand_avg_miss_latency::.switch_cpus.inst 77633.333333                       # average overall miss latency
system.l2.demand_avg_miss_latency::.switch_cpus.data 77768.343480                       # average overall miss latency
system.l2.demand_avg_miss_latency::total 77767.912275                       # average overall miss latency
system.l2.overall_avg_miss_latency::.switch_cpus.inst 77633.333333                       # average overall miss latency
system.l2.overall_avg_miss_latency::.switch_cpus.data 77768.343480                       # average overall miss latency
system.l2.overall_avg_miss_latency::total 77767.912275                       # average overall miss latency
system.l2.blocked_cycles::no_mshrs                  0                       # number of cycles access was blocked
system.l2.blocked_cycles::no_targets                0                       # number of cycles access was blocked
system.l2.blocked::no_mshrs                         0                       # number of cycles access was blocked
system.l2.blocked::no_targets                       0                       # number of cycles access was blocked
system.l2.avg_blocked_cycles::no_mshrs            nan                       # average number of cycles each access was blocked
system.l2.avg_blocked_cycles::no_targets          nan                       # average number of cycles each access was blocked
system.l2.writebacks::.writebacks                3617                       # number of writebacks
system.l2.writebacks::total                      3617                       # number of writebacks
system.l2.demand_mshr_misses::.switch_cpus.inst           30                       # number of demand (read+write) MSHR misses
system.l2.demand_mshr_misses::.switch_cpus.data         9363                       # number of demand (read+write) MSHR misses
system.l2.demand_mshr_misses::total              9393                       # number of demand (read+write) MSHR misses
system.l2.overall_mshr_misses::.switch_cpus.inst           30                       # number of overall MSHR misses
system.l2.overall_mshr_misses::.switch_cpus.data         9363                       # number of overall MSHR misses
system.l2.overall_mshr_misses::total             9393                       # number of overall MSHR misses
system.l2.demand_mshr_miss_latency::.switch_cpus.inst      2029000                       # number of demand (read+write) MSHR miss cycles
system.l2.demand_mshr_miss_latency::.switch_cpus.data    634515000                       # number of demand (read+write) MSHR miss cycles
system.l2.demand_mshr_miss_latency::total    636544000                       # number of demand (read+write) MSHR miss cycles
system.l2.overall_mshr_miss_latency::.switch_cpus.inst      2029000                       # number of overall MSHR miss cycles
system.l2.overall_mshr_miss_latency::.switch_cpus.data    634515000                       # number of overall MSHR miss cycles
system.l2.overall_mshr_miss_latency::total    636544000                       # number of overall MSHR miss cycles
system.l2.demand_mshr_miss_rate::.switch_cpus.inst     0.810811                       # mshr miss rate for demand accesses
system.l2.demand_mshr_miss_rate::.switch_cpus.data     0.969656                       # mshr miss rate for demand accesses
system.l2.demand_mshr_miss_rate::total       0.969050                       # mshr miss rate for demand accesses
system.l2.overall_mshr_miss_rate::.switch_cpus.inst     0.810811                       # mshr miss rate for overall accesses
system.l2.overall_mshr_miss_rate::.switch_cpus.data     0.969656                       # mshr miss rate for overall accesses
system.l2.overall_mshr_miss_rate::total      0.969050                       # mshr miss rate for overall accesses
system.l2.demand_avg_mshr_miss_latency::.switch_cpus.inst 67633.333333                       # average overall mshr miss latency
system.l2.demand_avg_mshr_miss_latency::.switch_cpus.data 67768.343480                       # average overall mshr miss latency
system.l2.demand_avg_mshr_miss_latency::total 67767.912275                       # average overall mshr miss latency
system.l2.overall_avg_mshr_miss_latency::.switch_cpus.inst 67633.333333                       # average overall mshr miss latency
system.l2.overall_avg_mshr_miss_latency::.switch_cpus.data 67768.343480                       # average overall mshr miss latency
system.l2.overall_avg_mshr_miss_latency::total 67767.912275                       # average overall mshr miss latency
system.l2.replacements                           7693                       # number of replacements
system.l2.WritebackDirty_hits::.writebacks         9572                       # number of WritebackDirty hits
system.l2.WritebackDirty_hits::total             9572                       # number of WritebackDirty hits
system.l2.WritebackDirty_accesses::.writebacks         9572                       # number of WritebackDirty accesses(hits+misses)
system.l2.WritebackDirty_accesses::total         9572                       # number of WritebackDirty accesses(hits+misses)
system.l2.WritebackClean_hits::.writebacks           35                       # number of WritebackClean hits
system.l2.WritebackClean_hits::total               35                       # number of WritebackClean hits
system.l2.WritebackClean_accesses::.writebacks           35                       # number of WritebackClean accesses(hits+misses)
system.l2.WritebackClean_accesses::total           35                       # number of WritebackClean accesses(hits+misses)
system.l2.ReadExReq_hits::.switch_cpus.data           60                       # number of ReadExReq hits
system.l2.ReadExReq_hits::total                    60                       # number of ReadExReq hits
system.l2.ReadExReq_misses::.switch_cpus.data         9358                       # number of ReadExReq misses
system.l2.ReadExReq_misses::total                9358                       # number of ReadExReq misses
system.l2.ReadExReq_miss_latency::.switch_cpus.data    727736000                       # number of ReadExReq miss cycles
system.l2.ReadExReq_miss_latency::total     727736000                       # number of ReadExReq miss cycles
system.l2.ReadExReq_accesses::.switch_cpus.data         9418                       # number of ReadExReq accesses(hits+misses)
system.l2.ReadExReq_accesses::total              9418                       # number of ReadExReq accesses(hits+misses)
system.l2.ReadExReq_miss_rate::.switch_cpus.data     0.993629                       # miss rate for ReadExReq accesses
system.l2.ReadExReq_miss_rate::total         0.993629                       # miss rate for ReadExReq accesses
system.l2.ReadExReq_avg_miss_latency::.switch_cpus.data 77766.189357                       # average ReadExReq miss latency
system.l2.ReadExReq_avg_miss_latency::total 77766.189357                       # average ReadExReq miss latency
system.l2.ReadExReq_mshr_misses::.switch_cpus.data         9358                       # number of ReadExReq MSHR misses
system.l2.ReadExReq_mshr_misses::total           9358                       # number of ReadExReq MSHR misses
system.l2.ReadExReq_mshr_miss_latency::.switch_cpus.data    634156000                       # number of ReadExReq MSHR miss cycles
system.l2.ReadExReq_mshr_miss_latency::total    634156000                       # number of ReadExReq MSHR miss cycles
system.l2.ReadExReq_mshr_miss_rate::.switch_cpus.data     0.993629                       # mshr miss rate for ReadExReq accesses
system.l2.ReadExReq_mshr_miss_rate::total     0.993629                       # mshr miss rate for ReadExReq accesses
system.l2.ReadExReq_avg_mshr_miss_latency::.switch_cpus.data 67766.189357                       # average ReadExReq mshr miss latency
system.l2.ReadExReq_avg_mshr_miss_latency::total 67766.189357                       # average ReadExReq mshr miss latency
system.l2.ReadCleanReq_hits::.switch_cpus.inst            7                       # number of ReadCleanReq hits
system.l2.ReadCleanReq_hits::total                  7                       # number of ReadCleanReq hits
system.l2.ReadCleanReq_misses::.switch_cpus.inst           30                       # number of ReadCleanReq misses
system.l2.ReadCleanReq_misses::total               30                       # number of ReadCleanReq misses
system.l2.ReadCleanReq_miss_latency::.switch_cpus.inst      2329000                       # number of ReadCleanReq miss cycles
system.l2.ReadCleanReq_miss_latency::total      2329000                       # number of ReadCleanReq miss cycles
system.l2.ReadCleanReq_accesses::.switch_cpus.inst           37                       # number of ReadCleanReq accesses(hits+misses)
system.l2.ReadCleanReq_accesses::total             37                       # number of ReadCleanReq accesses(hits+misses)
system.l2.ReadCleanReq_miss_rate::.switch_cpus.inst     0.810811                       # miss rate for ReadCleanReq accesses
system.l2.ReadCleanReq_miss_rate::total      0.810811                       # miss rate for ReadCleanReq accesses
system.l2.ReadCleanReq_avg_miss_latency::.switch_cpus.inst 77633.333333                       # average ReadCleanReq miss latency
[...]
system.switch_cpus.commit.committedInstType_0::FloatMisc            0      0.00%     55.95% # Class of committed instruction
system.switch_cpus.commit.committedInstType_0::FloatSqrt            0      0.00%     55.95% # Class of committed instruction
system.switch_cpus.commit.committedInstType_0::SimdAdd            0      0.00%     55.95% # Class of committed instruction
system.switch_cpus.commit.committedInstType_0::SimdAddAcc            0      0.00%     55.95% # Class of committed instruction
system.switch_cpus.commit.committedInstType_0::SimdAlu       894998      5.08%     61.03% # Class of committed instruction
system.switch_cpus.commit.committedInstType_0::SimdCmp            0      0.00%     61.03% # Class of committed instruction
system.switch_cpus.commit.committedInstType_0::SimdCvt            0      0.00%     61.03% # Class of committed instruction
system.switch_cpus.commit.committedInstType_0::SimdMisc       894944      5.08%     66.11% # Class of committed instruction
system.switch_cpus.commit.committedInstType_0::SimdMult            0      0.00%     66.11% # Class of committed instruction
system.switch_cpus.commit.committedInstType_0::SimdMultAcc            0      0.00%     66.11% # Class of committed instruction
system.switch_cpus.commit.committedInstType_0::SimdShift            0      0.00%     66.11% # Class of committed instruction
system.switch_cpus.commit.committedInstType_0::SimdShiftAcc            0      0.00%     66.11% # Class of committed instruction
system.switch_cpus.commit.committedInstType_0::SimdDiv            0      0.00%     66.11% # Class of committed instruction
system.switch_cpus.commit.committedInstType_0::SimdSqrt            0      0.00%     66.11% # Class of committed instruction
system.switch_cpus.commit.committedInstType_0::SimdFloatAdd      1491554      8.47%     74.58% # Class of committed instruction
system.switch_cpus.commit.committedInstType_0::SimdFloatAlu            0      0.00%     74.58% # Class of committed instruction
system.switch_cpus.commit.committedInstType_0::SimdFloatCmp            0      0.00%     74.58% # Class of committed instruction
system.switch_cpus.commit.committedInstType_0::SimdFloatCvt       745785      4.23%     78.82% # Class of committed instruction
system.switch_cpus.commit.committedInstType_0::SimdFloatDiv            0      0.00%     78.82% # Class of committed instruction
system.switch_cpus.commit.committedInstType_0::SimdFloatMisc            0      0.00%     78.82% # Class of committed instruction
system.switch_cpus.commit.committedInstType_0::SimdFloatMult      1044072      5.93%     84.74% # Class of committed instruction
system.switch_cpus.commit.committedInstType_0::SimdFloatMultAcc            0      0.00%     84.74% # Class of committed instruction
system.switch_cpus.commit.committedInstType_0::SimdFloatSqrt            0      0.00%     84.74% # Class of committed instruction
system.switch_cpus.commit.committedInstType_0::SimdReduceAdd            0      0.00%     84.74% # Class of committed instruction
system.switch_cpus.commit.committedInstType_0::SimdReduceAlu            0      0.00%     84.74% # Class of committed instruction
system.switch_cpus.commit.committedInstType_0::SimdReduceCmp            0      0.00%     84.74% # Class of committed instruction
system.switch_cpus.commit.committedInstType_0::SimdFloatReduceAdd            0      0.00%     84.74% # Class of committed instruction
system.switch_cpus.commit.committedInstType_0::SimdFloatReduceCmp            0      0.00%     84.74% # Class of committed instruction
system.switch_cpus.commit.committedInstType_0::SimdAes            0      0.00%     84.74% # Class of committed instruction
system.switch_cpus.commit.committedInstType_0::SimdAesMix            0      0.00%     84.74% # Class of committed instruction
system.switch_cpus.commit.committedInstType_0::SimdSha1Hash            0      0.00%     84.74% # Class of committed instruction
system.switch_cpus.commit.committedInstType_0::SimdSha1Hash2            0      0.00%     84.74% # Class of committed instruction
system.switch_cpus.commit.committedInstType_0::SimdSha256Hash            0      0.00%     84.74% # Class of committed instruction
system.switch_cpus.commit.committedInstType_0::SimdSha256Hash2            0      0.00%     84.74% # Class of committed instruction
system.switch_cpus.commit.committedInstType_0::SimdShaSigma2            0      0.00%     84.74% # Class of committed instruction
system.switch_cpus.commit.committedInstType_0::SimdShaSigma3            0      0.00%     84.74% # Class of committed instruction
system.switch_cpus.commit.committedInstType_0::SimdPredAlu            0      0.00%     84.74% # Class of committed instruction
system.switch_cpus.commit.committedInstType_0::MemRead       597611      3.39%     88.14% # Class of committed instruction
system.switch_cpus.commit.committedInstType_0::MemWrite       448689      2.55%     90.68% # Class of committed instruction
system.switch_cpus.commit.committedInstType_0::FloatMemRead      1640704      9.32%    100.00% # Class of committed instruction
system.switch_cpus.commit.committedInstType_0::FloatMemWrite           81      0.00%    100.00% # Class of committed instruction
system.switch_cpus.commit.committedInstType_0::IprAccess            0      0.00%    100.00% # Class of committed instruction
system.switch_cpus.commit.committedInstType_0::InstPrefetch            0      0.00%    100.00% # Class of committed instruction
system.switch_cpus.commit.committedInstType_0::total     17613021                       # Class of committed instruction
system.switch_cpus.commit.commitEligibleSamples       895076                       # number cycles where commit BW limit reached
system.switch_cpus.decode.idleCycles           781044                       # Number of cycles decode is idle
system.switch_cpus.decode.blockedCycles       1994650                       # Number of cycles decode is blocked
system.switch_cpus.decode.runCycles           1456910                       # Number of cycles decode is running
system.switch_cpus.decode.unblockCycles       1062397                       # Number of cycles decode is unblocking
system.switch_cpus.decode.squashCycles          12009                       # Number of cycles decode is squashing
system.switch_cpus.decode.branchResolved       343224                       # Number of times decode resolved a  branch
system.switch_cpus.decode.branchMispred            33                       # Number of times decode detected a branch misprediction
system.switch_cpus.decode.decodedInsts       19033346                       # Number of instructions handled by decode
system.switch_cpus.decode.squashedInsts           140                       # Number of squashed instructions handled by decode
system.switch_cpus.dtb.rdAccesses             2378242                       # TLB accesses on read requests
system.switch_cpus.dtb.wrAccesses              460917                       # TLB accesses on write requests
system.switch_cpus.dtb.rdMisses                    21                       # TLB misses on read requests
system.switch_cpus.dtb.wrMisses                   335                       # TLB misses on write requests
system.switch_cpus.dtb.walker.power_state.pwrStateResidencyTicks::UNDEFINED   4035433500                       # Cumulative time (in ticks) in various power states
system.switch_cpus.fetch.icacheStallCycles      1337754                       # Number of cycles fetch is stalled on an Icache miss
system.switch_cpus.fetch.insts               10812954                       # Number of instructions fetch has processed
system.switch_cpus.fetch.branches             1146459                       # Number of branches that fetch encountered
system.switch_cpus.fetch.predictedBranches       674088                       # Number of branches that fetch has predicted taken
system.switch_cpus.fetch.cycles               3957076                       # Number of cycles fetch has run and was not squashing or blocked
system.switch_cpus.fetch.squashCycles           24080                       # Number of cycles fetch has spent squashing
system.switch_cpus.fetch.miscStallCycles           15                       # Number of cycles fetch has spent waiting on interrupts,or bad addresses, or out of MSHRs
system.switch_cpus.fetch.pendingTrapStallCycles          117                       # Number of stall cycles due to pending traps
system.switch_cpus.fetch.icacheWaitRetryStallCycles           14                       # Number of stall cycles due to full MSHR
system.switch_cpus.fetch.cacheLines           1325533                       # Number of cache lines fetched
system.switch_cpus.fetch.icacheSquashes           317                       # Number of outstanding Icache misses that were squashed
system.switch_cpus.fetch.nisnDist::samples      5307016                       # Number of instructions fetched each cycle (Total)
system.switch_cpus.fetch.nisnDist::mean      3.591597                       # Number of instructions fetched each cycle (Total)
system.switch_cpus.fetch.nisnDist::stdev     3.605974                       # Number of instructions fetched each cycle (Total)
system.switch_cpus.fetch.nisnDist::underflows            0      0.00%      0.00% # Number of instructions fetched each cycle (Total)
system.switch_cpus.fetch.nisnDist::0          2184651     41.17%     41.17% # Number of instructions fetched each cycle (Total)
system.switch_cpus.fetch.nisnDist::1           248928      4.69%     45.86% # Number of instructions fetched each cycle (Total)
system.switch_cpus.fetch.nisnDist::2           389122      7.33%     53.19% # Number of instructions fetched each cycle (Total)
system.switch_cpus.fetch.nisnDist::3            88646      1.67%     54.86% # Number of instructions fetched each cycle (Total)
system.switch_cpus.fetch.nisnDist::4           131806      2.48%     57.34% # Number of instructions fetched each cycle (Total)
system.switch_cpus.fetch.nisnDist::5           100553      1.89%     59.24% # Number of instructions fetched each cycle (Total)
system.switch_cpus.fetch.nisnDist::6           160784      3.03%     62.27% # Number of instructions fetched each cycle (Total)
system.switch_cpus.fetch.nisnDist::7           247350      4.66%     66.93% # Number of instructions fetched each cycle (Total)
system.switch_cpus.fetch.nisnDist::8          1755176     33.07%    100.00% # Number of instructions fetched each cycle (Total)
system.switch_cpus.fetch.nisnDist::overflows            0      0.00%    100.00% # Number of instructions fetched each cycle (Total)
system.switch_cpus.fetch.nisnDist::min_value            0                       # Number of instructions fetched each cycle (Total)
system.switch_cpus.fetch.nisnDist::max_value            8                       # Number of instructions fetched each cycle (Total)
system.switch_cpus.fetch.nisnDist::total      5307016                       # Number of instructions fetched each cycle (Total)
system.switch_cpus.fetch.branchRate          0.216015                       # Number of branch fetches per cycle
system.switch_cpus.fetch.rate                2.037367                       # Number of inst fetches per cycle
system.switch_cpus.itb.rdAccesses                   0                       # TLB accesses on read requests
system.switch_cpus.itb.wrAccesses             1325554                       # TLB accesses on write requests
system.switch_cpus.itb.rdMisses                     0                       # TLB misses on read requests
system.switch_cpus.itb.wrMisses                    37                       # TLB misses on write requests
system.switch_cpus.itb.walker.power_state.pwrStateResidencyTicks::UNDEFINED   4035433500                       # Cumulative time (in ticks) in various power states
system.switch_cpus.lsq0.forwLoads              152469                       # Number of loads that had data forwarded from stores
system.switch_cpus.lsq0.squashedLoads          167799                       # Number of loads squashed
system.switch_cpus.lsq0.ignoredResponses           95                       # Number of memory responses ignored because the instruction is squashed
system.switch_cpus.lsq0.memOrderViolation           16                       # Number of memory ordering violations
system.switch_cpus.lsq0.squashedStores          35466                       # Number of stores squashed
system.switch_cpus.lsq0.rescheduledLoads           24                       # Number of loads that were rescheduled
system.switch_cpus.lsq0.blockedByCache             67                       # Number of times an access to memory failed due to the cache being blocked
system.switch_cpus.power_state.pwrStateResidencyTicks::OFF   4035433500                       # Cumulative time (in ticks) in various power states
system.switch_cpus.rename.squashCycles          12009                       # Number of cycles rename is squashing
system.switch_cpus.rename.idleCycles          1106302                       # Number of cycles rename is idle
system.switch_cpus.rename.blockCycles          161416                       # Number of cycles rename is blocking
system.switch_cpus.rename.serializeStallCycles            0                       # count of cycles rename stalledfor serializing inst
system.switch_cpus.rename.runCycles           2193978                       # Number of cycles rename is running
system.switch_cpus.rename.unblockCycles       1833305                       # Number of cycles rename is unblocking
system.switch_cpus.rename.renamedInsts       18996326                       # Number of instructions processed by rename
system.switch_cpus.rename.ROBFullEvents           163                       # Number of times rename has blocked due to ROB full
system.switch_cpus.rename.IQFullEvents        1492095                       # Number of times rename has blocked due to IQ full
system.switch_cpus.rename.SQFullEvents          86020                       # Number of times rename has blocked due to SQ full
system.switch_cpus.rename.renamedOperands     21246339                       # Number of destination operands rename has renamed
system.switch_cpus.rename.lookups            42660985                       # Number of register rename lookups that rename has made
system.switch_cpus.rename.intLookups         18062256                       # Number of integer rename lookups
system.switch_cpus.rename.fpLookups          13958937                       # Number of floating rename lookups
system.switch_cpus.rename.committedMaps      19703464                       # Number of HB maps that are committed
system.switch_cpus.rename.undoneMaps          1542727                       # Number of HB maps that are undone due to squashing
system.switch_cpus.rename.serializing               0                       # count of serializing insts renamed
system.switch_cpus.rename.tempSerializing            0                       # count of temporary serializing insts renamed
system.switch_cpus.rename.skidInsts           4279515                       # count of insts added to the skid buffer
system.switch_cpus.rob.reads                 23136323                       # The number of ROB reads
system.switch_cpus.rob.writes                37955039                       # The number of ROB writes
system.switch_cpus.thread_0.numInsts         10000000                       # Number of Instructions committed
system.switch_cpus.thread_0.numOps           17613021                       # Number of Ops committed
system.switch_cpus.thread_0.numMemRefs              0                       # Number of Memory References
system.tol2bus.trans_dist::ReadResp               275                       # Transaction distribution
system.tol2bus.trans_dist::WritebackDirty        13189                       # Transaction distribution
system.tol2bus.trans_dist::WritebackClean           35                       # Transaction distribution
system.tol2bus.trans_dist::CleanEvict            4159                       # Transaction distribution
system.tol2bus.trans_dist::ReadExReq             9418                       # Transaction distribution
system.tol2bus.trans_dist::ReadExResp            9417                       # Transaction distribution
system.tol2bus.trans_dist::ReadCleanReq            37                       # Transaction distribution
system.tol2bus.trans_dist::ReadSharedReq          238                       # Transaction distribution
system.tol2bus.pkt_count_system.cpu.icache.mem_side_port::system.l2.cpu_side_port          109                       # Packet count per connected requestor and responder (bytes)
system.tol2bus.pkt_count_system.cpu.dcache.mem_side_port::system.l2.cpu_side_port        28966                       # Packet count per connected requestor and responder (bytes)
system.tol2bus.pkt_count::total                 29075                       # Packet count per connected requestor and responder (bytes)
system.tol2bus.pkt_size_system.cpu.icache.mem_side_port::system.l2.cpu_side_port         4608                       # Cumulative packet size per connected requestor and responder (bytes)
system.tol2bus.pkt_size_system.cpu.dcache.mem_side_port::system.l2.cpu_side_port      1230528                       # Cumulative packet size per connected requestor and responder (bytes)
system.tol2bus.pkt_size::total                1235136                       # Cumulative packet size per connected requestor and responder (bytes)
system.tol2bus.snoops                            7693                       # Total snoops (count)
system.tol2bus.snoopTraffic                    231488                       # Total snoop traffic (bytes)
system.tol2bus.snoop_fanout::samples            17386                       # Request fanout histogram
system.tol2bus.snoop_fanout::mean            0.056655                       # Request fanout histogram
system.tol2bus.snoop_fanout::stdev           0.231188                       # Request fanout histogram
system.tol2bus.snoop_fanout::underflows             0      0.00%      0.00% # Request fanout histogram
system.tol2bus.snoop_fanout::0                  16401     94.33%     94.33% # Request fanout histogram
system.tol2bus.snoop_fanout::1                    985      5.67%    100.00% # Request fanout histogram
system.tol2bus.snoop_fanout::2                      0      0.00%    100.00% # Request fanout histogram
system.tol2bus.snoop_fanout::3                      0      0.00%    100.00% # Request fanout histogram
system.tol2bus.snoop_fanout::4                      0      0.00%    100.00% # Request fanout histogram
system.tol2bus.snoop_fanout::overflows              0      0.00%    100.00% # Request fanout histogram
system.tol2bus.snoop_fanout::min_value              0                       # Request fanout histogram
system.tol2bus.snoop_fanout::max_value              1                       # Request fanout histogram
system.tol2bus.snoop_fanout::total              17386                       # Request fanout histogram
system.tol2bus.power_state.pwrStateResidencyTicks::UNDEFINED   4035433500                       # Cumulative time (in ticks) in various power states
system.tol2bus.reqLayer0.occupancy           19298500                       # Layer occupancy (ticks)
system.tol2bus.reqLayer0.utilization              0.7                       # Layer utilization (%)
system.tol2bus.respLayer0.occupancy             55500                       # Layer occupancy (ticks)
system.tol2bus.respLayer0.utilization             0.0                       # Layer utilization (%)
system.tol2bus.respLayer1.occupancy          14482500                       # Layer occupancy (ticks)
system.tol2bus.respLayer1.utilization             0.5                       # Layer utilization (%)
system.voltage_domain.voltage                       1                       # Voltage in Volts

---------- End Simulation Statistics   ----------
