
---------- Begin Simulation Statistics ----------
final_tick                                 3895400000                       # Number of ticks from beginning of simulation (restored from checkpoints and never reset)
host_inst_rate                                 227938                       # Simulator instruction rate (inst/s)
host_mem_usage                                8574628                       # Number of bytes of host memory used
host_op_rate                                   415476                       # Simulator op (including micro ops) rate (op/s)
host_seconds                                    48.26                       # Real time elapsed on the host
host_tick_rate                               52086223                       # Simulator tick rate (ticks/s)
sim_freq                                 1000000000000                       # Frequency of simulated ticks
sim_insts                                    11000001                       # Number of instructions simulated
sim_ops                                      20050437                       # Number of ops (including micro ops) simulated
sim_seconds                                  0.002514                       # Number of seconds simulated
sim_ticks                                  2513626000                       # Number of ticks simulated
system.cpu.committedInsts                           0                       # Number of instructions committed
system.cpu.committedOps                             0                       # Number of ops (including micro ops) committed
system.cpu.idle_fraction                            0                       # Percentage of idle cycles
system.cpu.not_idle_fraction                        1                       # Percentage of non-idle cycles
system.cpu.numCycles                                0                       # number of cpu cycles simulated
system.cpu.numWorkItemsCompleted                    0                       # number of work items this cpu completed
system.cpu.numWorkItemsStarted                      0                       # number of work items this cpu started
system.cpu.num_busy_cycles                          0                       # Number of busy cycles
system.cpu.num_conditional_control_insts            0                       # number of instructions that are conditional controls
system.cpu.num_fp_alu_accesses                      0                       # Number of float alu accesses
system.cpu.num_fp_insts                             0                       # number of float instructions
system.cpu.num_fp_register_reads                    0                       # number of times the floating registers were read
system.cpu.num_fp_register_writes                   0                       # number of times the floating registers were written
system.cpu.num_func_calls                           0                       # number of times a function call or return occured
system.cpu.num_idle_cycles                          0                       # Number of idle cycles
system.cpu.num_int_alu_accesses                     0                       # Number of integer alu accesses
system.cpu.num_int_insts                            0                       # number of integer instructions
system.cpu.num_int_register_reads                   0                       # number of times the integer registers were read
system.cpu.num_int_register_writes                  0                       # number of times the integer registers were written
system.cpu.num_load_insts                           0                       # Number of load instructions
system.cpu.num_mem_refs                             0                       # number of memory refs
system.cpu.num_store_insts                          0                       # Number of store instructions
system.cpu.num_vec_alu_accesses                     0                       # Number of vector alu accesses
system.cpu.num_vec_insts                            0                       # number of vector instructions
system.cpu.num_vec_register_reads                   0                       # number of times the vector registers were read
system.cpu.num_vec_register_writes                  0                       # number of times the vector registers were written
system.cpu.op_class::No_OpClass                     0                       # Class of executed instruction
system.cpu.op_class::IntAlu                         0                       # Class of executed instruction
system.cpu.op_class::IntMult                        0                       # Class of executed instruction
system.cpu.op_class::IntDiv                         0                       # Class of executed instruction
system.cpu.op_class::FloatAdd                       0                       # Class of executed instruction
system.cpu.op_class::FloatCmp                       0                       # Class of executed instruction
system.cpu.op_class::FloatCvt                       0                       # Class of executed instruction
system.cpu.op_class::FloatMult                      0                       # Class of executed instruction
system.cpu.op_class::FloatMultAcc                   0                       # Class of executed instruction
system.cpu.op_class::FloatDiv                       0                       # Class of executed instruction
system.cpu.op_class::FloatMisc                      0                       # Class of executed instruction
system.cpu.op_class::FloatSqrt                      0                       # Class of executed instruction
system.cpu.op_class::SimdAdd                        0                       # Class of executed instruction
system.cpu.op_class::SimdAddAcc                     0                       # Class of executed instruction
system.cpu.op_class::SimdAlu                        0                       # Class of executed instruction
system.cpu.op_class::SimdCmp                        0                       # Class of executed instruction
system.cpu.op_class::SimdCvt                        0                       # Class of executed instruction
system.cpu.op_class::SimdMisc                       0                       # Class of executed instruction
system.cpu.op_class::SimdMult                       0                       # Class of executed instruction
system.cpu.op_class::SimdMultAcc                    0                       # Class of executed instruction
system.cpu.op_class::SimdShift                      0                       # Class of executed instruction
system.cpu.op_class::SimdShiftAcc                   0                       # Class of executed instruction
system.cpu.op_class::SimdDiv                        0                       # Class of executed instruction
system.cpu.op_class::SimdSqrt                       0                       # Class of executed instruction
system.cpu.op_class::SimdFloatAdd                   0                       # Class of executed instruction
system.cpu.op_class::SimdFloatAlu                   0                       # Class of executed instruction
system.cpu.op_class::SimdFloatCmp                   0                       # Class of executed instruction
system.cpu.op_class::SimdFloatCvt                   0                       # Class of executed instruction
system.cpu.op_class::SimdFloatDiv                   0                       # Class of executed instruction
system.cpu.op_class::SimdFloatMisc                  0                       # Class of executed instruction
system.cpu.op_class::SimdFloatMult                  0                       # Class of executed instruction
system.cpu.op_class::SimdFloatMultAcc               0                       # Class of executed instruction
system.cpu.op_class::SimdFloatSqrt                  0                       # Class of executed instruction
system.cpu.op_class::SimdReduceAdd                  0                       # Class of executed instruction
system.cpu.op_class::SimdReduceAlu                  0                       # Class of executed instruction
system.cpu.op_class::SimdReduceCmp                  0                       # Class of executed instruction
system.cpu.op_class::SimdFloatReduceAdd             0                       # Class of executed instruction
system.cpu.op_class::SimdFloatReduceCmp             0                       # Class of executed instruction
system.cpu.op_class::SimdAes                        0                       # Class of executed instruction
system.cpu.op_class::SimdAesMix                     0                       # Class of executed instruction
system.cpu.op_class::SimdSha1Hash                   0                       # Class of executed instruction
system.cpu.op_class::SimdSha1Hash2                  0                       # Class of executed instruction
system.cpu.op_class::SimdSha256Hash                 0                       # Class of executed instruction
system.cpu.op_class::SimdSha256Hash2                0                       # Class of executed instruction
system.cpu.op_class::SimdShaSigma2                  0                       # Class of executed instruction
system.cpu.op_class::SimdShaSigma3                  0                       # Class of executed instruction
system.cpu.op_class::SimdPredAlu                    0                       # Class of executed instruction
system.cpu.op_class::MemRead                        0                       # Class of executed instruction
system.cpu.op_class::MemWrite                       0                       # Class of executed instruction
system.cpu.op_class::FloatMemRead                   0                       # Class of executed instruction
system.cpu.op_class::FloatMemWrite                  0                       # Class of executed instruction
system.cpu.op_class::IprAccess                      0                       # Class of executed instruction
system.cpu.op_class::InstPrefetch                   0                       # Class of executed instruction
system.cpu.op_class::total                          0                       # Class of executed instruction
system.cpu.workload.numSyscalls                     3                       # Number of system calls
system.membus.snoop_filter.hit_multi_requests            0                       # Number of requests hitting in the snoop filter with multiple (>1) holders of the requested data.
system.membus.snoop_filter.hit_multi_snoops            0                       # Number of snoops hitting in the snoop filter with multiple (>1) holders of the requested data.
system.membus.snoop_filter.hit_single_requests         6708                       # Number of requests hitting in the snoop filter with a single holder of the requested data.
system.membus.snoop_filter.hit_single_snoops            0                       # Number of snoops hitting in the snoop filter with a single holder of the requested data.
system.membus.snoop_filter.tot_requests         16102                       # Total number of requests made to the snoop filter.
system.membus.snoop_filter.tot_snoops               0                       # Total number of snoops made to the snoop filter.
system.switch_cpus.cc_regfile_reads           3889974                       # number of cc regfile reads
system.switch_cpus.cc_regfile_writes          3888358                       # number of cc regfile writes
system.switch_cpus.committedInsts            10000000                       # Number of Instructions Simulated
system.switch_cpus.committedOps              17613021                       # Number of Ops (including micro ops) Simulated
system.switch_cpus.cpi                       0.502725                       # CPI: Cycles Per Instruction
system.switch_cpus.cpi_total                 0.502725                       # CPI: Total CPI of All Threads
system.switch_cpus.fp_regfile_reads          12986280                       # number of floating regfile reads
system.switch_cpus.fp_regfile_writes          7315549                       # number of floating regfile writes
system.switch_cpus.idleCycles                     300                       # Total number of cycles that the CPU has spent unscheduled due to idling
system.switch_cpus.iew.branchMispredicts          324                       # Number of branch mispredicts detected at execute
system.switch_cpus.iew.exec_branches          1047151                       # Number of branches executed
system.switch_cpus.iew.exec_nop                     0                       # number of nop insts executed
system.switch_cpus.iew.exec_rate             3.508898                       # Inst execution rate
system.switch_cpus.iew.exec_refs              2691812                       # number of memory reference insts executed
system.switch_cpus.iew.exec_stores             449671                       # Number of stores executed
system.switch_cpus.iew.exec_swp                     0                       # number of swp insts executed
system.switch_cpus.iew.iewBlockCycles            4219                       # Number of cycles IEW is blocking
system.switch_cpus.iew.iewDispLoadInsts       2242243                       # Number of dispatched load instructions
system.switch_cpus.iew.iewDispNonSpecInsts            0                       # Number of dispatched non-speculative instructions
system.switch_cpus.iew.iewDispSquashedInsts          180                       # Number of squashed instructions skipped by dispatch
system.switch_cpus.iew.iewDispStoreInsts       450200                       # Number of dispatched store instructions
system.switch_cpus.iew.iewDispatchedInsts     17647791                       # Number of instructions dispatched to IQ
system.switch_cpus.iew.iewExecLoadInsts       2242141                       # Number of load instructions executed
system.switch_cpus.iew.iewExecSquashedInsts          663                       # Number of squashed instructions skipped in execute
system.switch_cpus.iew.iewExecutedInsts      17640117                       # Number of executed instructions
system.switch_cpus.iew.iewIQFullEvents             27                       # Number of times the IQ has become full, causing a stall
system.switch_cpus.iew.iewIdleCycles                0                       # Number of cycles IEW is idle
system.switch_cpus.iew.iewLSQFullEvents           308                       # Number of times the LSQ has become full, causing a stall
system.switch_cpus.iew.iewSquashCycles            414                       # Number of cycles IEW is squashing
system.switch_cpus.iew.iewUnblockCycles           347                       # Number of cycles IEW is unblocking
system.switch_cpus.iew.memOrderViolationEvents            9                       # Number of memory order violations
system.switch_cpus.iew.predictedNotTakenIncorrect          239                       # Number of branches that were predicted not taken incorrectly
system.switch_cpus.iew.predictedTakenIncorrect           85                       # Number of branches that were predicted taken incorrectly
system.switch_cpus.iew.wb_consumers          23521862                       # num instructions consuming a value
system.switch_cpus.iew.wb_count              17639217                       # cumulative count of insts written-back
system.switch_cpus.iew.wb_fanout             0.586113                       # average fanout of values written-back
system.switch_cpus.iew.wb_producers          13786479                       # num instructions producing a value
system.switch_cpus.iew.wb_rate               3.508719                       # insts written-back per cycle
system.switch_cpus.iew.wb_sent               17639521                       # cumulative count of insts sent to commit
system.switch_cpus.int_regfile_reads         16752711                       # number of integer regfile reads
system.switch_cpus.int_regfile_writes         8528089                       # number of integer regfile writes
system.switch_cpus.ipc                       1.989158                       # IPC: Instructions Per Cycle
system.switch_cpus.ipc_total                 1.989158                       # IPC: Total IPC of All Threads
system.switch_cpus.iq.FU_type_0::No_OpClass       299392      1.70%      1.70% # Type of FU issued
system.switch_cpus.iq.FU_type_0::IntAlu       9125499     51.73%     53.43% # Type of FU issued
system.switch_cpus.iq.FU_type_0::IntMult          308      0.00%     53.43% # Type of FU issued
system.switch_cpus.iq.FU_type_0::IntDiv             0      0.00%     53.43% # Type of FU issued
system.switch_cpus.iq.FU_type_0::FloatAdd       448277      2.54%     55.97% # Type of FU issued
system.switch_cpus.iq.FU_type_0::FloatCmp            0      0.00%     55.97% # Type of FU issued
system.switch_cpus.iq.FU_type_0::FloatCvt            0      0.00%     55.97% # Type of FU issued
system.switch_cpus.iq.FU_type_0::FloatMult            0      0.00%     55.97% # Type of FU issued
system.switch_cpus.iq.FU_type_0::FloatMultAcc            0      0.00%     55.97% # Type of FU issued
system.switch_cpus.iq.FU_type_0::FloatDiv            0      0.00%     55.97% # Type of FU issued
system.switch_cpus.iq.FU_type_0::FloatMisc            0      0.00%     55.97% # Type of FU issued
system.switch_cpus.iq.FU_type_0::FloatSqrt            0      0.00%     55.97% # Type of FU issued
system.switch_cpus.iq.FU_type_0::SimdAdd            0      0.00%     55.97% # Type of FU issued
system.switch_cpus.iq.FU_type_0::SimdAddAcc            0      0.00%     55.97% # Type of FU issued
system.switch_cpus.iq.FU_type_0::SimdAlu       896315      5.08%     61.05% # Type of FU issued
system.switch_cpus.iq.FU_type_0::SimdCmp            0      0.00%     61.05% # Type of FU issued
system.switch_cpus.iq.FU_type_0::SimdCvt            0      0.00%     61.05% # Type of FU issued
system.switch_cpus.iq.FU_type_0::SimdMisc       895803      5.08%     66.13% # Type of FU issued
system.switch_cpus.iq.FU_type_0::SimdMult            0      0.00%     66.13% # Type of FU issued
system.switch_cpus.iq.FU_type_0::SimdMultAcc            0      0.00%     66.13% # Type of FU issued
system.switch_cpus.iq.FU_type_0::SimdShift            0      0.00%     66.13% # Type of FU issued
system.switch_cpus.iq.FU_type_0::SimdShiftAcc            0      0.00%     66.13% # Type of FU issued
system.switch_cpus.iq.FU_type_0::SimdDiv            0      0.00%     66.13% # Type of FU issued
system.switch_cpus.iq.FU_type_0::SimdSqrt            0      0.00%     66.13% # Type of FU issued
system.switch_cpus.iq.FU_type_0::SimdFloatAdd      1492151      8.46%     74.59% # Type of FU issued
system.switch_cpus.iq.FU_type_0::SimdFloatAlu            0      0.00%     74.59% # Type of FU issued
system.switch_cpus.iq.FU_type_0::SimdFloatCmp            0      0.00%     74.59% # Type of FU issued
system.switch_cpus.iq.FU_type_0::SimdFloatCvt       746257      4.23%     78.82% # Type of FU issued
system.switch_cpus.iq.FU_type_0::SimdFloatDiv            0      0.00%     78.82% # Type of FU issued
system.switch_cpus.iq.FU_type_0::SimdFloatMisc            0      0.00%     78.82% # Type of FU issued
system.switch_cpus.iq.FU_type_0::SimdFloatMult      1044849      5.92%     84.74% # Type of FU issued
system.switch_cpus.iq.FU_type_0::SimdFloatMultAcc            0      0.00%     84.74% # Type of FU issued
system.switch_cpus.iq.FU_type_0::SimdFloatSqrt            0      0.00%     84.74% # Type of FU issued
system.switch_cpus.iq.FU_type_0::SimdReduceAdd            0      0.00%     84.74% # Type of FU issued
system.switch_cpus.iq.FU_type_0::SimdReduceAlu            0      0.00%     84.74% # Type of FU issued
system.switch_cpus.iq.FU_type_0::SimdReduceCmp            0      0.00%     84.74% # Type of FU issued
system.switch_cpus.iq.FU_type_0::SimdFloatReduceAdd            0      0.00%     84.74% # Type of FU issued
system.switch_cpus.iq.FU_type_0::SimdFloatReduceCmp            0      0.00%     84.74% # Type of FU issued
system.switch_cpus.iq.FU_type_0::SimdAes            0      0.00%     84.74% # Type of FU issued
system.switch_cpus.iq.FU_type_0::SimdAesMix            0      0.00%     84.74% # Type of FU issued
system.switch_cpus.iq.FU_type_0::SimdSha1Hash            0      0.00%     84.74% # Type of FU issued
system.switch_cpus.iq.FU_type_0::SimdSha1Hash2            0      0.00%     84.74% # Type of FU issued
system.switch_cpus.iq.FU_type_0::SimdSha256Hash            0      0.00%     84.74% # Type of FU issued
system.switch_cpus.iq.FU_type_0::SimdSha256Hash2            0      0.00%     84.74% # Type of FU issued
system.switch_cpus.iq.FU_type_0::SimdShaSigma2            0      0.00%     84.74% # Type of FU issued
system.switch_cpus.iq.FU_type_0::SimdShaSigma3            0      0.00%     84.74% # Type of FU issued
system.switch_cpus.iq.FU_type_0::SimdPredAlu            0      0.00%     84.74% # Type of FU issued
system.switch_cpus.iq.FU_type_0::MemRead       599397      3.40%     88.14% # Type of FU issued
system.switch_cpus.iq.FU_type_0::MemWrite       449608      2.55%     90.69% # Type of FU issued
system.switch_cpus.iq.FU_type_0::FloatMemRead      1642812      9.31%    100.00% # Type of FU issued
system.switch_cpus.iq.FU_type_0::FloatMemWrite          114      0.00%    100.00% # Type of FU issued
system.switch_cpus.iq.FU_type_0::IprAccess            0      0.00%    100.00% # Type of FU issued
system.switch_cpus.iq.FU_type_0::InstPrefetch            0      0.00%    100.00% # Type of FU issued
system.switch_cpus.iq.FU_type_0::total       17640782                       # Type of FU issued
system.switch_cpus.iq.fp_alu_accesses         7763810                       # Number of floating point alu accesses
system.switch_cpus.iq.fp_inst_queue_reads     15527621                       # Number of floating instruction queue reads
system.switch_cpus.iq.fp_inst_queue_wakeup_accesses      7763493                       # Number of floating instruction queue wakeup accesses
system.switch_cpus.iq.fp_inst_queue_writes      7778036                       # Number of floating instruction queue writes
system.switch_cpus.iq.fu_busy_cnt              148574                       # FU busy when requested
system.switch_cpus.iq.fu_busy_rate           0.008422                       # FU busy rate (busy events/executed inst)
system.switch_cpus.iq.fu_full::No_OpClass            0      0.00%      0.00% # attempts to use FU when none available
system.switch_cpus.iq.fu_full::IntAlu          148525     99.97%     99.97% # attempts to use FU when none available
system.switch_cpus.iq.fu_full::IntMult              0      0.00%     99.97% # attempts to use FU when none available
system.switch_cpus.iq.fu_full::IntDiv               0      0.00%     99.97% # attempts to use FU when none available
system.switch_cpus.iq.fu_full::FloatAdd             0      0.00%     99.97% # attempts to use FU when none available
system.switch_cpus.iq.fu_full::FloatCmp             0      0.00%     99.97% # attempts to use FU when none available
system.switch_cpus.iq.fu_full::FloatCvt             0      0.00%     99.97% # attempts to use FU when none available
system.switch_cpus.iq.fu_full::FloatMult            0      0.00%     99.97% # attempts to use FU when none available
system.switch_cpus.iq.fu_full::FloatMultAcc            0      0.00%     99.97% # attempts to use FU when none available
system.switch_cpus.iq.fu_full::FloatDiv             0      0.00%     99.97% # attempts to use FU when none available
system.switch_cpus.iq.fu_full::FloatMisc            0      0.00%     99.97% # attempts to use FU when none available
system.switch_cpus.iq.fu_full::FloatSqrt            0      0.00%     99.97% # attempts to use FU when none available
system.switch_cpus.iq.fu_full::SimdAdd              0      0.00%     99.97% # attempts to use FU when none available
system.switch_cpus.iq.fu_full::SimdAddAcc            0      0.00%     99.97% # attempts to use FU when none available
system.switch_cpus.iq.fu_full::SimdAlu              0      0.00%     99.97% # attempts to use FU when none available
system.switch_cpus.iq.fu_full::SimdCmp              0      0.00%     99.97% # attempts to use FU when none available
system.switch_cpus.iq.fu_full::SimdCvt              0      0.00%     99.97% # attempts to use FU when none available
system.switch_cpus.iq.fu_full::SimdMisc             0      0.00%     99.97% # attempts to use FU when none available
system.switch_cpus.iq.fu_full::SimdMult             0      0.00%     99.97% # attempts to use FU when none available
system.switch_cpus.iq.fu_full::SimdMultAcc            0      0.00%     99.97% # attempts to use FU when none available
system.switch_cpus.iq.fu_full::SimdShift            0      0.00%     99.97% # attempts to use FU when none available
system.switch_cpus.iq.fu_full::SimdShiftAcc            0      0.00%     99.97% # attempts to use FU when none available
system.switch_cpus.iq.fu_full::SimdDiv              0      0.00%     99.97% # attempts to use FU when none available
system.switch_cpus.iq.fu_full::SimdSqrt             0      0.00%     99.97% # attempts to use FU when none available
system.switch_cpus.iq.fu_full::SimdFloatAdd            0      0.00%     99.97% # attempts to use FU when none available
system.switch_cpus.iq.fu_full::SimdFloatAlu            0      0.00%     99.97% # attempts to use FU when none available
system.switch_cpus.iq.fu_full::SimdFloatCmp            0      0.00%     99.97% # attempts to use FU when none available
system.switch_cpus.iq.fu_full::SimdFloatCvt            0      0.00%     99.97% # attempts to use FU when none available
system.switch_cpus.iq.fu_full::SimdFloatDiv            0      0.00%     99.97% # attempts to use FU when none available
system.switch_cpus.iq.fu_full::SimdFloatMisc            0      0.00%     99.97% # attempts to use FU when none available
system.switch_cpus.iq.fu_full::SimdFloatMult            0      0.00%     99.97% # attempts to use FU when none available
system.switch_cpus.iq.fu_full::SimdFloatMultAcc            0      0.00%     99.97% # attempts to use FU when none available
system.switch_cpus.iq.fu_full::SimdFloatSqrt            0      0.00%     99.97% # attempts to use FU when none available
system.switch_cpus.iq.fu_full::SimdReduceAdd            0      0.00%     99.97% # attempts to use FU when none available
system.switch_cpus.iq.fu_full::SimdReduceAlu            0      0.00%     99.97% # attempts to use FU when none available
system.switch_cpus.iq.fu_full::SimdReduceCmp            0      0.00%     99.97% # attempts to use FU when none available
system.switch_cpus.iq.fu_full::SimdFloatReduceAdd            0      0.00%     99.97% # attempts to use FU when none available
system.switch_cpus.iq.fu_full::SimdFloatReduceCmp            0      0.00%     99.97% # attempts to use FU when none available
system.switch_cpus.iq.fu_full::SimdAes              0      0.00%     99.97% # attempts to use FU when none available
system.switch_cpus.iq.fu_full::SimdAesMix            0      0.00%     99.97% # attempts to use FU when none available
system.switch_cpus.iq.fu_full::SimdSha1Hash            0      0.00%     99.97% # attempts to use FU when none available
system.switch_cpus.iq.fu_full::SimdSha1Hash2            0      0.00%     99.97% # attempts to use FU when none available
system.switch_cpus.iq.fu_full::SimdSha256Hash            0      0.00%     99.97% # attempts to use FU when none available
system.switch_cpus.iq.fu_full::SimdSha256Hash2            0      0.00%     99.97% # attempts to use FU when none available
system.switch_cpus.iq.fu_full::SimdShaSigma2            0      0.00%     99.97% # attempts to use FU when none available
system.switch_cpus.iq.fu_full::SimdShaSigma3            0      0.00%     99.97% # attempts to use FU when none available
system.switch_cpus.iq.fu_full::SimdPredAlu            0      0.00%     99.97% # attempts to use FU when none available
system.switch_cpus.iq.fu_full::MemRead             32      0.02%     99.99% # attempts to use FU when none available
system.switch_cpus.iq.fu_full::MemWrite             8      0.01%     99.99% # attempts to use FU when none available
system.switch_cpus.iq.fu_full::FloatMemRead            1      0.00%     99.99% # attempts to use FU when none available
system.switch_cpus.iq.fu_full::FloatMemWrite            8      0.01%    100.00% # attempts to use FU when none available
system.switch_cpus.iq.fu_full::IprAccess            0      0.00%    100.00% # attempts to use FU when none available
system.switch_cpus.iq.fu_full::InstPrefetch            0      0.00%    100.00% # attempts to use FU when none available
system.switch_cpus.iq.int_alu_accesses        9726154                       # Number of integer alu accesses
system.switch_cpus.iq.int_inst_queue_reads     24929524                       # Number of integer instruction queue reads
system.switch_cpus.iq.int_inst_queue_wakeup_accesses      9875724                       # Number of integer instruction queue wakeup accesses
system.switch_cpus.iq.int_inst_queue_writes      9904414                       # Number of integer instruction queue writes
system.switch_cpus.iq.iqInstsAdded           17647791                       # Number of instructions added to the IQ (excludes non-spec)
system.switch_cpus.iq.iqInstsIssued          17640782                       # Number of instructions issued
system.switch_cpus.iq.iqSquashedInstsExamined        34650                       # Number of squashed instructions iterated over during squash; mainly for profiling
system.switch_cpus.iq.iqSquashedInstsIssued           57                       # Number of squashed instructions issued
system.switch_cpus.iq.iqSquashedOperandsExamined        24510                       # Number of squashed operands that are examined and possibly removed from graph
system.switch_cpus.iq.issued_per_cycle::samples      5026952                       # Number of insts issued each cycle
system.switch_cpus.iq.issued_per_cycle::mean     3.509240                       # Number of insts issued each cycle
system.switch_cpus.iq.issued_per_cycle::stdev     1.970110                       # Number of insts issued each cycle
system.switch_cpus.iq.issued_per_cycle::underflows            0      0.00%      0.00% # Number of insts issued each cycle
system.switch_cpus.iq.issued_per_cycle::0       130786      2.60%      2.60% # Number of insts issued each cycle
system.switch_cpus.iq.issued_per_cycle::1       676808     13.46%     16.07% # Number of insts issued each cycle
system.switch_cpus.iq.issued_per_cycle::2      1041874     20.73%     36.79% # Number of insts issued each cycle
system.switch_cpus.iq.issued_per_cycle::3       858735     17.08%     53.87% # Number of insts issued each cycle
system.switch_cpus.iq.issued_per_cycle::4       858368     17.08%     70.95% # Number of insts issued each cycle
system.switch_cpus.iq.issued_per_cycle::5       453001      9.01%     79.96% # Number of insts issued each cycle
system.switch_cpus.iq.issued_per_cycle::6       557647     11.09%     91.05% # Number of insts issued each cycle
system.switch_cpus.iq.issued_per_cycle::7       338202      6.73%     97.78% # Number of insts issued each cycle
system.switch_cpus.iq.issued_per_cycle::8       111531      2.22%    100.00% # Number of insts issued each cycle
system.switch_cpus.iq.issued_per_cycle::overflows            0      0.00%    100.00% # Number of insts issued each cycle
system.switch_cpus.iq.issued_per_cycle::min_value            0                       # Number of insts issued each cycle
system.switch_cpus.iq.issued_per_cycle::max_value            8                       # Number of insts issued each cycle
system.switch_cpus.iq.issued_per_cycle::total      5026952                       # Number of insts issued each cycle
system.switch_cpus.iq.rate                   3.509031                       # Inst issue rate
system.switch_cpus.iq.vec_alu_accesses              0                       # Number of vector alu accesses
system.switch_cpus.iq.vec_inst_queue_reads            0                       # Number of vector instruction queue reads
system.switch_cpus.iq.vec_inst_queue_wakeup_accesses            0                       # Number of vector instruction queue wakeup accesses
system.switch_cpus.iq.vec_inst_queue_writes            0                       # Number of vector instruction queue writes
system.switch_cpus.memDep0.conflictingLoads           19                       # Number of conflicting loads.
system.switch_cpus.memDep0.conflictingStores           59                       # Number of conflicting stores.
system.switch_cpus.memDep0.insertedLoads      2242243                       # Number of loads inserted to the mem dependence unit.
system.switch_cpus.memDep0.insertedStores       450200                       # Number of stores inserted to the mem dependence unit.
system.switch_cpus.misc_regfile_reads         5981964                       # number of misc regfile reads
system.switch_cpus.numCycles                  5027252                       # number of cpu cycles simulated
system.switch_cpus.numWorkItemsCompleted            0                       # number of work items this cpu completed
system.switch_cpus.numWorkItemsStarted              0                       # number of work items this cpu started
system.switch_cpus.timesIdled                       6                       # Number of times that the entire CPU went into an idle state and unscheduled itself
system.tol2bus.snoop_filter.hit_multi_requests            4                       # Number of requests hitting in the snoop filter with multiple (>1) holders of the requested data.
system.tol2bus.snoop_filter.hit_multi_snoops            0                       # Number of snoops hitting in the snoop filter with multiple (>1) holders of the requested data.
system.tol2bus.snoop_filter.hit_single_requests         9679                       # Number of requests hitting in the snoop filter with a single holder of the requested data.
system.tol2bus.snoop_filter.hit_single_snoops          982                       # Number of snoops hitting in the snoop filter with a single holder of the requested data.
system.tol2bus.snoop_filter.tot_requests        19361                       # Total number of requests made to the snoop filter.
system.tol2bus.snoop_filter.tot_snoops            982                       # Total number of snoops made to the snoop filter.
system.clk_domain.clock                          1000                       # Clock period in ticks
system.cpu.branchPred.lookups                       0                       # Number of BP lookups
system.cpu.branchPred.condPredicted                 0                       # Number of conditional branches predicted
system.cpu.branchPred.condIncorrect                 0                       # Number of conditional branches incorrect
system.cpu.branchPred.BTBLookups                    0                       # Number of BTB lookups
system.cpu.branchPred.BTBHits                       0                       # Number of BTB hits
system.cpu.branchPred.BTBHitPct                   nan                       # BTB Hit Percentage
system.cpu.branchPred.RASUsed                       0                       # Number of times the RAS was used to get a target.
system.cpu.branchPred.RASIncorrect                  0                       # Number of incorrect RAS predictions.
system.cpu.branchPred.indirectLookups               0                       # Number of indirect predictor lookups.
system.cpu.branchPred.indirectHits                  0                       # Number of indirect target hits.
system.cpu.branchPred.indirectMisses                0                       # Number of indirect misses.
system.cpu.branchPred.indirectMispredicted            0                       # Number of mispredicted indirect branches.
system.cpu.dcache.demand_hits::.switch_cpus.data      2531262                       # number of demand (read+write) hits
system.cpu.dcache.demand_hits::total          2531262                       # number of demand (read+write) hits
system.cpu.dcache.overall_hits::.switch_cpus.data      2531262                       # number of overall hits
system.cpu.dcache.overall_hits::total         2531262                       # number of overall hits
system.cpu.dcache.demand_misses::.switch_cpus.data         9830                       # number of demand (read+write) misses
system.cpu.dcache.demand_misses::total           9830                       # number of demand (read+write) misses
system.cpu.dcache.overall_misses::.switch_cpus.data         9830                       # number of overall misses
system.cpu.dcache.overall_misses::total          9830                       # number of overall misses
system.cpu.dcache.demand_miss_latency::.switch_cpus.data    758801996                       # number of demand (read+write) miss cycles
system.cpu.dcache.demand_miss_latency::total    758801996                       # number of demand (read+write) miss cycles
system.cpu.dcache.overall_miss_latency::.switch_cpus.data    758801996                       # number of overall miss cycles
system.cpu.dcache.overall_miss_latency::total    758801996                       # number of overall miss cycles
system.cpu.dcache.demand_accesses::.switch_cpus.data      2541092                       # number of demand (read+write) accesses
system.cpu.dcache.demand_accesses::total      2541092                       # number of demand (read+write) accesses
system.cpu.dcache.overall_accesses::.switch_cpus.data      2541092                       # number of overall (read+write) accesses
system.cpu.dcache.overall_accesses::total      2541092                       # number of overall (read+write) accesses
system.cpu.dcache.demand_miss_rate::.switch_cpus.data     0.003868                       # miss rate for demand accesses
system.cpu.dcache.demand_miss_rate::total     0.003868                       # miss rate for demand accesses
system.cpu.dcache.overall_miss_rate::.switch_cpus.data     0.003868                       # miss rate for overall accesses
system.cpu.dcache.overall_miss_rate::total     0.003868                       # miss rate for overall accesses
system.cpu.dcache.demand_avg_miss_latency::.switch_cpus.data 77192.471617                       # average overall miss latency
system.cpu.dcache.demand_avg_miss_latency::total 77192.471617                       # average overall miss latency
system.cpu.dcache.overall_avg_miss_latency::.switch_cpus.data 77192.471617                       # average overall miss latency
system.cpu.dcache.overall_avg_miss_latency::total 77192.471617                       # average overall miss latency
system.cpu.dcache.blocked_cycles::no_mshrs          705                       # number of cycles access was blocked
system.cpu.dcache.blocked_cycles::no_targets            0                       # number of cycles access was blocked
system.cpu.dcache.blocked::no_mshrs                85                       # number of cycles access was blocked
system.cpu.dcache.blocked::no_targets               0                       # number of cycles access was blocked
system.cpu.dcache.avg_blocked_cycles::no_mshrs     8.294118                       # average number of cycles each access was blocked
system.cpu.dcache.avg_blocked_cycles::no_targets          nan                       # average number of cycles each access was blocked
system.cpu.dcache.writebacks::.writebacks         9568                       # number of writebacks
system.cpu.dcache.writebacks::total              9568                       # number of writebacks
system.cpu.dcache.demand_mshr_hits::.switch_cpus.data          182                       # number of demand (read+write) MSHR hits
system.cpu.dcache.demand_mshr_hits::total          182                       # number of demand (read+write) MSHR hits
system.cpu.dcache.overall_mshr_hits::.switch_cpus.data          182                       # number of overall MSHR hits
system.cpu.dcache.overall_mshr_hits::total          182                       # number of overall MSHR hits
system.cpu.dcache.demand_mshr_misses::.switch_cpus.data         9648                       # number of demand (read+write) MSHR misses
system.cpu.dcache.demand_mshr_misses::total         9648                       # number of demand (read+write) MSHR misses
system.cpu.dcache.overall_mshr_misses::.switch_cpus.data         9648                       # number of overall MSHR misses
system.cpu.dcache.overall_mshr_misses::total         9648                       # number of overall MSHR misses
system.cpu.dcache.demand_mshr_miss_latency::.switch_cpus.data    745916497                       # number of demand (read+write) MSHR miss cycles
system.cpu.dcache.demand_mshr_miss_latency::total    745916497                       # number of demand (read+write) MSHR miss cycles
system.cpu.dcache.overall_mshr_miss_latency::.switch_cpus.data    745916497                       # number of overall MSHR miss cycles
system.cpu.dcache.overall_mshr_miss_latency::total    745916497                       # number of overall MSHR miss cycles
system.cpu.dcache.demand_mshr_miss_rate::.switch_cpus.data     0.003797                       # mshr miss rate for demand accesses
system.cpu.dcache.demand_mshr_miss_rate::total     0.003797                       # mshr miss rate for demand accesses
system.cpu.dcache.overall_mshr_miss_rate::.switch_cpus.data     0.003797                       # mshr miss rate for overall accesses
system.cpu.dcache.overall_mshr_miss_rate::total     0.003797                       # mshr miss rate for overall accesses
system.cpu.dcache.demand_avg_mshr_miss_latency::.switch_cpus.data 77313.069755                       # average overall mshr miss latency
system.cpu.dcache.demand_avg_mshr_miss_latency::total 77313.069755                       # average overall mshr miss latency
system.cpu.dcache.overall_avg_mshr_miss_latency::.switch_cpus.data 77313.069755                       # average overall mshr miss latency
system.cpu.dcache.overall_avg_mshr_miss_latency::total 77313.069755                       # average overall mshr miss latency
system.cpu.dcache.replacements                   9647                       # number of replacements
system.cpu.dcache.ReadReq_hits::.switch_cpus.data      2091926                       # number of ReadReq hits
system.cpu.dcache.ReadReq_hits::total         2091926                       # number of ReadReq hits
system.cpu.dcache.ReadReq_misses::.switch_cpus.data          411                       # number of ReadReq misses
system.cpu.dcache.ReadReq_misses::total           411                       # number of ReadReq misses
system.cpu.dcache.ReadReq_miss_latency::.switch_cpus.data      7195500                       # number of ReadReq miss cycles
system.cpu.dcache.ReadReq_miss_latency::total      7195500                       # number of ReadReq miss cycles
system.cpu.dcache.ReadReq_accesses::.switch_cpus.data      2092337                       # number of ReadReq accesses(hits+misses)
system.cpu.dcache.ReadReq_accesses::total      2092337                       # number of ReadReq accesses(hits+misses)
system.cpu.dcache.ReadReq_miss_rate::.switch_cpus.data     0.000196                       # miss rate for ReadReq accesses
system.cpu.dcache.ReadReq_miss_rate::total     0.000196                       # miss rate for ReadReq accesses
system.cpu.dcache.ReadReq_avg_miss_latency::.switch_cpus.data 17507.299270                       # average ReadReq miss latency
system.cpu.dcache.ReadReq_avg_miss_latency::total 17507.299270                       # average ReadReq miss latency
system.cpu.dcache.ReadReq_mshr_hits::.switch_cpus.data          181                       # number of ReadReq MSHR hits
system.cpu.dcache.ReadReq_mshr_hits::total          181                       # number of ReadReq MSHR hits
system.cpu.dcache.ReadReq_mshr_misses::.switch_cpus.data          230                       # number of ReadReq MSHR misses
system.cpu.dcache.ReadReq_mshr_misses::total          230                       # number of ReadReq MSHR misses
system.cpu.dcache.ReadReq_mshr_miss_latency::.switch_cpus.data      3736500                       # number of ReadReq MSHR miss cycles
system.cpu.dcache.ReadReq_mshr_miss_latency::total      3736500                       # number of ReadReq MSHR miss cycles
system.cpu.dcache.ReadReq_mshr_miss_rate::.switch_cpus.data     0.000110                       # mshr miss rate for ReadReq accesses
system.cpu.dcache.ReadReq_mshr_miss_rate::total     0.000110                       # mshr miss rate for ReadReq accesses
system.cpu.dcache.ReadReq_avg_mshr_miss_latency::.switch_cpus.data 16245.652174                       # average ReadReq mshr miss latency
system.cpu.dcache.ReadReq_avg_mshr_miss_latency::total 16245.652174                       # average ReadReq mshr miss latency
system.cpu.dcache.WriteReq_hits::.switch_cpus.data       439336                       # number of WriteReq hits
system.cpu.dcache.WriteReq_hits::total         439336                       # number of WriteReq hits
system.cpu.dcache.WriteReq_misses::.switch_cpus.data         9419                       # number of WriteReq misses
system.cpu.dcache.WriteReq_misses::total         9419                       # number of WriteReq misses
system.cpu.dcache.WriteReq_miss_latency::.switch_cpus.data    751606496                       # number of WriteReq miss cycles
system.cpu.dcache.WriteReq_miss_latency::total    751606496                       # number of WriteReq miss cycles
system.cpu.dcache.WriteReq_accesses::.switch_cpus.data       448755                       # number of WriteReq accesses(hits+misses)
system.cpu.dcache.WriteReq_accesses::total       448755                       # number of WriteReq accesses(hits+misses)
system.cpu.dcache.WriteReq_miss_rate::.switch_cpus.data     0.020989                       # miss rate for WriteReq accesses
system.cpu.dcache.WriteReq_miss_rate::total     0.020989                       # miss rate for WriteReq accesses
system.cpu.dcache.WriteReq_avg_miss_latency::.switch_cpus.data 79796.846374                       # average WriteReq miss latency
system.cpu.dcache.WriteReq_avg_miss_latency::total 79796.846374                       # average WriteReq miss latency
system.cpu.dcache.WriteReq_mshr_hits::.switch_cpus.data            1                       # number of WriteReq MSHR hits
system.cpu.dcache.WriteReq_mshr_hits::total            1                       # number of WriteReq MSHR hits
system.cpu.dcache.WriteReq_mshr_misses::.switch_cpus.data         9418                       # number of WriteReq MSHR misses
system.cpu.dcache.WriteReq_mshr_misses::total         9418                       # number of WriteReq MSHR misses
system.cpu.dcache.WriteReq_mshr_miss_latency::.switch_cpus.data    742179997                       # number of WriteReq MSHR miss cycles
system.cpu.dcache.WriteReq_mshr_miss_latency::total    742179997                       # number of WriteReq MSHR miss cycles
system.cpu.dcache.WriteReq_mshr_miss_rate::.switch_cpus.data     0.020987                       # mshr miss rate for WriteReq accesses
system.cpu.dcache.WriteReq_mshr_miss_rate::total     0.020987                       # mshr miss rate for WriteReq accesses
system.cpu.dcache.WriteReq_avg_mshr_miss_latency::.switch_cpus.data 78804.416755                       # average WriteReq mshr miss latency
system.cpu.dcache.WriteReq_avg_mshr_miss_latency::total 78804.416755                       # average WriteReq mshr miss latency
system.cpu.dcache.power_state.pwrStateResidencyTicks::UNDEFINED   3895400000                       # Cumulative time (in ticks) in various power states
system.cpu.dcache.tags.tagsinuse                 1024                       # Cycle average of tags in use
system.cpu.dcache.tags.total_refs             2717142                       # Total number of references to valid blocks.
system.cpu.dcache.tags.sampled_refs             10671                       # Sample count of references to valid blocks.
system.cpu.dcache.tags.avg_refs            254.628620                       # Average number of references to valid blocks.
system.cpu.dcache.tags.warmup_cycle                 0                       # Cycle when the warmup percentage was hit.
system.cpu.dcache.tags.occ_blocks::.cpu.data    65.513320                       # Average occupied blocks per requestor
system.cpu.dcache.tags.occ_blocks::.switch_cpus.data   958.486680                       # Average occupied blocks per requestor
system.cpu.dcache.tags.occ_percent::.cpu.data     0.063978                       # Average percentage of cache occupancy
system.cpu.dcache.tags.occ_percent::.switch_cpus.data     0.936022                       # Average percentage of cache occupancy
system.cpu.dcache.tags.occ_percent::total            1                       # Average percentage of cache occupancy
system.cpu.dcache.tags.occ_task_id_blocks::1024         1024                       # Occupied blocks per task id
system.cpu.dcache.tags.age_task_id_blocks_1024::0           37                       # Occupied blocks per task id
system.cpu.dcache.tags.age_task_id_blocks_1024::1          372                       # Occupied blocks per task id
system.cpu.dcache.tags.age_task_id_blocks_1024::2          605                       # Occupied blocks per task id
system.cpu.dcache.tags.age_task_id_blocks_1024::3           10                       # Occupied blocks per task id
system.cpu.dcache.tags.occ_task_id_percent::1024            1                       # Percentage of cache occupancy per task id
system.cpu.dcache.tags.tag_accesses           5091831                       # Number of tag accesses
system.cpu.dcache.tags.data_accesses          5091831                       # Number of data accesses
system.cpu.dcache.tags.power_state.pwrStateResidencyTicks::UNDEFINED   3895400000                       # Cumulative time (in ticks) in various power states
system.cpu.dtb.rdAccesses                           0                       # TLB accesses on read requests
system.cpu.dtb.wrAccesses                           0                       # TLB accesses on write requests
system.cpu.dtb.rdMisses                             0                       # TLB misses on read requests
system.cpu.dtb.wrMisses                             0                       # TLB misses on write requests
system.cpu.dtb.walker.power_state.pwrStateResidencyTicks::UNDEFINED   3895400000                       # Cumulative time (in ticks) in various power states
system.cpu.dtb_walker_cache.blocked_cycles::no_mshrs            0                       # number of cycles access was blocked
system.cpu.dtb_walker_cache.blocked_cycles::no_targets            0                       # number of cycles access was blocked
system.cpu.dtb_walker_cache.blocked::no_mshrs            0                       # number of cycles access was blocked
system.cpu.dtb_walker_cache.blocked::no_targets            0                       # number of cycles access was blocked
system.cpu.dtb_walker_cache.avg_blocked_cycles::no_mshrs          nan                       # average number of cycles each access was blocked
system.cpu.dtb_walker_cache.avg_blocked_cycles::no_targets          nan                       # average number of cycles each access was blocked
system.cpu.dtb_walker_cache.replacements            0                       # number of replacements
system.cpu.dtb_walker_cache.power_state.pwrStateResidencyTicks::UNDEFINED   3895400000                       # Cumulative time (in ticks) in various power states
system.cpu.dtb_walker_cache.tags.tagsinuse            0                       # Cycle average of tags in use
system.cpu.dtb_walker_cache.tags.total_refs            0                       # Total number of references to valid blocks.
system.cpu.dtb_walker_cache.tags.sampled_refs            0                       # Sample count of references to valid blocks.
system.cpu.dtb_walker_cache.tags.avg_refs          nan                       # Average number of references to valid blocks.
system.cpu.dtb_walker_cache.tags.warmup_cycle            0                       # Cycle when the warmup percentage was hit.
system.cpu.dtb_walker_cache.tags.tag_accesses            0                       # Number of tag accesses
system.cpu.dtb_walker_cache.tags.data_accesses            0                       # Number of data accesses
system.cpu.dtb_walker_cache.tags.power_state.pwrStateResidencyTicks::UNDEFINED   3895400000                       # Cumulative time (in ticks) in various power states
system.cpu.icache.demand_hits::.switch_cpus.inst      1197754                       # number of demand (read+write) hits
system.cpu.icache.demand_hits::total          1197754                       # number of demand (read+write) hits
system.cpu.icache.overall_hits::.switch_cpus.inst      1197754                       # number of overall hits
system.cpu.icache.overall_hits::total         1197754                       # number of overall hits
system.cpu.icache.demand_misses::.switch_cpus.inst           50                       # number of demand (read+write) misses
system.cpu.icache.demand_misses::total             50                       # number of demand (read+write) misses
system.cpu.icache.overall_misses::.switch_cpus.inst           50                       # number of overall misses
system.cpu.icache.overall_misses::total            50                       # number of overall misses
system.cpu.icache.demand_miss_latency::.switch_cpus.inst      3951000                       # number of demand (read+write) miss cycles
system.cpu.icache.demand_miss_latency::total      3951000                       # number of demand (read+write) miss cycles
system.cpu.icache.overall_miss_latency::.switch_cpus.inst      3951000                       # number of overall miss cycles
system.cpu.icache.overall_miss_latency::total      3951000                       # number of overall miss cycles
system.cpu.icache.demand_accesses::.switch_cpus.inst      1197804                       # number of demand (read+write) accesses
system.cpu.icache.demand_accesses::total      1197804                       # number of demand (read+write) accesses
system.cpu.icache.overall_accesses::.switch_cpus.inst      1197804                       # number of overall (read+write) accesses
system.cpu.icache.overall_accesses::total      1197804                       # number of overall (read+write) accesses
system.cpu.icache.demand_miss_rate::.switch_cpus.inst     0.000042                       # miss rate for demand accesses
system.cpu.icache.demand_miss_rate::total     0.000042                       # miss rate for demand accesses
system.cpu.icache.overall_miss_rate::.switch_cpus.inst     0.000042                       # miss rate for overall accesses
system.cpu.icache.overall_miss_rate::total     0.000042                       # miss rate for overall accesses
system.cpu.icache.demand_avg_miss_latency::.switch_cpus.inst        79020                       # average overall miss latency
system.cpu.icache.demand_avg_miss_latency::total        79020                       # average overall miss latency
system.cpu.icache.overall_avg_miss_latency::.switch_cpus.inst        79020                       # average overall miss latency
system.cpu.icache.overall_avg_miss_latency::total        79020                       # average overall miss latency
system.cpu.icache.blocked_cycles::no_mshrs            0                       # number of cycles access was blocked
system.cpu.icache.blocked_cycles::no_targets            0                       # number of cycles access was blocked
system.cpu.icache.blocked::no_mshrs                 0                       # number of cycles access was blocked
system.cpu.icache.blocked::no_targets               0                       # number of cycles access was blocked
system.cpu.icache.avg_blocked_cycles::no_mshrs          nan                       # average number of cycles each access was blocked
system.cpu.icache.avg_blocked_cycles::no_targets          nan                       # average number of cycles each access was blocked
system.cpu.icache.writebacks::.writebacks           31                       # number of writebacks
system.cpu.icache.writebacks::total                31                       # number of writebacks
system.cpu.icache.demand_mshr_hits::.switch_cpus.inst           15                       # number of demand (read+write) MSHR hits
system.cpu.icache.demand_mshr_hits::total           15                       # number of demand (read+write) MSHR hits
system.cpu.icache.overall_mshr_hits::.switch_cpus.inst           15                       # number of overall MSHR hits
system.cpu.icache.overall_mshr_hits::total           15                       # number of overall MSHR hits
system.cpu.icache.demand_mshr_misses::.switch_cpus.inst           35                       # number of demand (read+write) MSHR misses
system.cpu.icache.demand_mshr_misses::total           35                       # number of demand (read+write) MSHR misses
system.cpu.icache.overall_mshr_misses::.switch_cpus.inst           35                       # number of overall MSHR misses
system.cpu.icache.overall_mshr_misses::total           35                       # number of overall MSHR misses
system.cpu.icache.demand_mshr_miss_latency::.switch_cpus.inst      2834000                       # number of demand (read+write) MSHR miss cycles
system.cpu.icache.demand_mshr_miss_latency::total      2834000                       # number of demand (read+write) MSHR miss cycles
system.cpu.icache.overall_mshr_miss_latency::.switch_cpus.inst      2834000                       # number of overall MSHR miss cycles
system.cpu.icache.overall_mshr_miss_latency::total      2834000                       # number of overall MSHR miss cycles
system.cpu.icache.demand_mshr_miss_rate::.switch_cpus.inst     0.000029                       # mshr miss rate for demand accesses
system.cpu.icache.demand_mshr_miss_rate::total     0.000029                       # mshr miss rate for demand accesses
system.cpu.icache.overall_mshr_miss_rate::.switch_cpus.inst     0.000029                       # mshr miss rate for overall accesses
system.cpu.icache.overall_mshr_miss_rate::total     0.000029                       # mshr miss rate for overall accesses
system.cpu.icache.demand_avg_mshr_miss_latency::.switch_cpus.inst 80971.428571                       # average overall mshr miss latency
system.cpu.icache.demand_avg_mshr_miss_latency::total 80971.428571                       # average overall mshr miss latency
system.cpu.icache.overall_avg_mshr_miss_latency::.switch_cpus.inst 80971.428571                       # average overall mshr miss latency
system.cpu.icache.overall_avg_mshr_miss_latency::total 80971.428571                       # average overall mshr miss latency
system.cpu.icache.replacements                     31                       # number of replacements
system.cpu.icache.ReadReq_hits::.switch_cpus.inst      1197754                       # number of ReadReq hits
system.cpu.icache.ReadReq_hits::total         1197754                       # number of ReadReq hits
system.cpu.icache.ReadReq_misses::.switch_cpus.inst           50                       # number of ReadReq misses
system.cpu.icache.ReadReq_misses::total            50                       # number of ReadReq misses
system.cpu.icache.ReadReq_miss_latency::.switch_cpus.inst      3951000                       # number of ReadReq miss cycles
system.cpu.icache.ReadReq_miss_latency::total      3951000                       # number of ReadReq miss cycles
system.cpu.icache.ReadReq_accesses::.switch_cpus.inst      1197804                       # number of ReadReq accesses(hits+misses)
system.cpu.icache.ReadReq_accesses::total      1197804                       # number of ReadReq accesses(hits+misses)
system.cpu.icache.ReadReq_miss_rate::.switch_cpus.inst     0.000042                       # miss rate for ReadReq accesses
system.cpu.icache.ReadReq_miss_rate::total     0.000042                       # miss rate for ReadReq accesses
system.cpu.icache.ReadReq_avg_miss_latency::.switch_cpus.inst        79020                       # average ReadReq miss latency
system.cpu.icache.ReadReq_avg_miss_latency::total        79020                       # average ReadReq miss latency
system.cpu.icache.ReadReq_mshr_hits::.switch_cpus.inst           15                       # number of ReadReq MSHR hits
system.cpu.icache.ReadReq_mshr_hits::total           15                       # number of ReadReq MSHR hits
system.cpu.icache.ReadReq_mshr_misses::.switch_cpus.inst           35                       # number of ReadReq MSHR misses
system.cpu.icache.ReadReq_mshr_misses::total           35                       # number of ReadReq MSHR misses
system.cpu.icache.ReadReq_mshr_miss_latency::.switch_cpus.inst      2834000                       # number of ReadReq MSHR miss cycles
system.cpu.icache.ReadReq_mshr_miss_latency::total      2834000                       # number of ReadReq MSHR miss cycles
system.cpu.icache.ReadReq_mshr_miss_rate::.switch_cpus.inst     0.000029                       # mshr miss rate for ReadReq accesses
system.cpu.icache.ReadReq_mshr_miss_rate::total     0.000029                       # mshr miss rate for ReadReq accesses
system.cpu.icache.ReadReq_avg_mshr_miss_latency::.switch_cpus.inst 80971.428571                       # average ReadReq mshr miss latency
system.cpu.icache.ReadReq_avg_mshr_miss_latency::total 80971.428571                       # average ReadReq mshr miss latency
system.cpu.icache.power_state.pwrStateResidencyTicks::UNDEFINED   3895400000                       # Cumulative time (in ticks) in various power states
system.cpu.icache.tags.tagsinuse           974.441888                       # Cycle average of tags in use
system.cpu.icache.tags.total_refs             2333933                       # Total number of references to valid blocks.
system.cpu.icache.tags.sampled_refs              1007                       # Sample count of references to valid blocks.
system.cpu.icache.tags.avg_refs           2317.709037                       # Average number of references to valid blocks.
system.cpu.icache.tags.warmup_cycle                 0                       # Cycle when the warmup percentage was hit.
system.cpu.icache.tags.occ_blocks::.cpu.inst   948.752336                       # Average occupied blocks per requestor
system.cpu.icache.tags.occ_blocks::.switch_cpus.inst    25.689552                       # Average occupied blocks per requestor
system.cpu.icache.tags.occ_percent::.cpu.inst     0.926516                       # Average percentage of cache occupancy
system.cpu.icache.tags.occ_percent::.switch_cpus.inst     0.025087                       # Average percentage of cache occupancy
system.cpu.icache.tags.occ_percent::total     0.951603                       # Average percentage of cache occupancy
system.cpu.icache.tags.occ_task_id_blocks::1024          976                       # Occupied blocks per task id
system.cpu.icache.tags.age_task_id_blocks_1024::1            2                       # Occupied blocks per task id
system.cpu.icache.tags.age_task_id_blocks_1024::2            4                       # Occupied blocks per task id
system.cpu.icache.tags.age_task_id_blocks_1024::3          970                       # Occupied blocks per task id
system.cpu.icache.tags.occ_task_id_percent::1024     0.953125                       # Percentage of cache occupancy per task id
system.cpu.icache.tags.tag_accesses           2395643                       # Number of tag accesses
system.cpu.icache.tags.data_accesses          2395643                       # Number of data accesses
system.cpu.icache.tags.power_state.pwrStateResidencyTicks::UNDEFINED   3895400000                       # Cumulative time (in ticks) in various power states
system.cpu.interrupts.clk_domain.clock           8000                       # Clock period in ticks
system.cpu.itb.rdAccesses                           0                       # TLB accesses on read requests
system.cpu.itb.wrAccesses                           0                       # TLB accesses on write requests
system.cpu.itb.rdMisses                             0                       # TLB misses on read requests
system.cpu.itb.wrMisses                             0                       # TLB misses on write requests
system.cpu.itb.walker.power_state.pwrStateResidencyTicks::UNDEFINED   3895400000                       # Cumulative time (in ticks) in various power states
system.cpu.itb_walker_cache.blocked_cycles::no_mshrs            0                       # number of cycles access was blocked
system.cpu.itb_walker_cache.blocked_cycles::no_targets            0                       # number of cycles access was blocked
system.cpu.itb_walker_cache.blocked::no_mshrs            0                       # number of cycles access was blocked
system.cpu.itb_walker_cache.blocked::no_targets            0                       # number of cycles access was blocked
system.cpu.itb_walker_cache.avg_blocked_cycles::no_mshrs          nan                       # average number of cycles each access was blocked
system.cpu.itb_walker_cache.avg_blocked_cycles::no_targets          nan                       # average number of cycles each access was blocked
system.cpu.itb_walker_cache.replacements            0                       # number of replacements
system.cpu.itb_walker_cache.power_state.pwrStateResidencyTicks::UNDEFINED   3895400000                       # Cumulative time (in ticks) in various power states
system.cpu.itb_walker_cache.tags.tagsinuse            0                       # Cycle average of tags in use
system.cpu.itb_walker_cache.tags.total_refs            0                       # Total number of references to valid blocks.
system.cpu.itb_walker_cache.tags.sampled_refs            0                       # Sample count of references to valid blocks.
system.cpu.itb_walker_cache.tags.avg_refs          nan                       # Average number of references to valid blocks.
system.cpu.itb_walker_cache.tags.warmup_cycle            0                       # Cycle when the warmup percentage was hit.
system.cpu.itb_walker_cache.tags.tag_accesses            0                       # Number of tag accesses
system.cpu.itb_walker_cache.tags.data_accesses            0                       # Number of data accesses
system.cpu.itb_walker_cache.tags.power_state.pwrStateResidencyTicks::UNDEFINED   3895400000                       # Cumulative time (in ticks) in various power states
system.cpu.power_state.pwrStateResidencyTicks::OFF   2513626000                       # Cumulative time (in ticks) in various power states
system.cpu.thread_0.numInsts                        0                       # Number of Instructions committed
system.cpu.thread_0.numOps                          0                       # Number of Ops committed
system.cpu.thread_0.numMemRefs                      0                       # Number of Memory References
system.cpu_clk_domain.clock                       500                       # Clock period in ticks
system.cpu_voltage_domain.voltage                   1                       # Voltage in Volts
system.l2.demand_hits::.switch_cpus.inst            5                       # number of demand (read+write) hits
system.l2.demand_hits::.switch_cpus.data          284                       # number of demand (read+write) hits
system.l2.demand_hits::total                      289                       # number of demand (read+write) hits
system.l2.overall_hits::.switch_cpus.inst            5                       # number of overall hits
system.l2.overall_hits::.switch_cpus.data          284                       # number of overall hits
system.l2.overall_hits::total                     289                       # number of overall hits
system.l2.demand_misses::.switch_cpus.inst           30                       # number of demand (read+write) misses
system.l2.demand_misses::.switch_cpus.data         9364                       # number of demand (read+write) misses
system.l2.demand_misses::total                   9394                       # number of demand (read+write) misses
system.l2.overall_misses::.switch_cpus.inst           30                       # number of overall misses
system.l2.overall_misses::.switch_cpus.data         9364                       # number of overall misses
system.l2.overall_misses::total                  9394                       # number of overall misses
system.l2.demand_miss_latency::.switch_cpus.inst      2723500                       # number of demand (read+write) miss cycles
system.l2.demand_miss_latency::.switch_cpus.data    728395500                       # number of demand (read+write) miss cycles
system.l2.demand_miss_latency::total        731119000                       # number of demand (read+write) miss cycles
system.l2.overall_miss_latency::.switch_cpus.inst      2723500                       # number of overall miss cycles
system.l2.overall_miss_latency::.switch_cpus.data    728395500                       # number of overall miss cycles
system.l2.overall_miss_latency::total       731119000                       # number of overall miss cycles
system.l2.demand_accesses::.switch_cpus.inst           35                       # number of demand (read+write) accesses
system.l2.demand_accesses::.switch_cpus.data         9648                       # number of demand (read+write) accesses
system.l2.demand_accesses::total                 9683                       # number of demand (read+write) accesses
system.l2.overall_accesses::.switch_cpus.inst           35                       # number of overall (read+write) accesses
system.l2.overall_accesses::.switch_cpus.data         9648                       # number of overall (read+write) accesses
system.l2.overall_accesses::total                9683                       # number of overall (read+write) accesses
system.l2.demand_miss_rate::.switch_cpus.inst     0.857143                       # miss rate for demand accesses
system.l2.demand_miss_rate::.switch_cpus.data     0.970564                       # miss rate for demand accesses
system.l2.demand_miss_rate::total            0.970154                       # miss rate for demand accesses
system.l2.overall_miss_rate::.switch_cpus.inst     0.857143                       # miss rate for overall accesses
system.l2.overall_miss_rate::.switch_cpus.data     0.970564                       # miss rate for overall accesses
system.l2.overall_miss_rate::total           0.970154                       # miss rate for overall accesses
system.l2.demand_avg_miss_latency::.switch_cpus.inst 90783.333333                       # average overall miss latency
system.l2.demand_avg_miss_latency::.switch_cpus.data 77786.789833                       # average overall miss latency
system.l2.demand_avg_miss_latency::total 77828.294656                       # average overall miss latency
system.l2.overall_avg_miss_latency::.switch_cpus.inst 90783.333333                       # average overall miss latency
system.l2.overall_avg_miss_latency::.switch_cpus.data 77786.789833                       # average overall miss latency
system.l2.overall_avg_miss_latency::total 77828.294656                       # average overall miss latency
system.l2.blocked_cycles::no_mshrs                  0                       # number of cycles access was blocked
system.l2.blocked_cycles::no_targets                0                       # number of cycles access was blocked
system.l2.blocked::no_mshrs                         0                       # number of cycles access was blocked
system.l2.blocked::no_targets                       0                       # number of cycles access was blocked
system.l2.avg_blocked_cycles::no_mshrs            nan                       # average number of cycles each access was blocked
system.l2.avg_blocked_cycles::no_targets          nan                       # average number of cycles each access was blocked
system.l2.writebacks::.writebacks                3613                       # number of writebacks
system.l2.writebacks::total                      3613                       # number of writebacks
system.l2.demand_mshr_misses::.switch_cpus.inst           30                       # number of demand (read+write) MSHR misses
system.l2.demand_mshr_misses::.switch_cpus.data         9364                       # number of demand (read+write) MSHR misses
system.l2.demand_mshr_misses::total              9394                       # number of demand (read+write) MSHR misses
system.l2.overall_mshr_misses::.switch_cpus.inst           30                       # number of overall MSHR misses
system.l2.overall_mshr_misses::.switch_cpus.data         9364                       # number of overall MSHR misses
system.l2.overall_mshr_misses::total             9394                       # number of overall MSHR misses
system.l2.demand_mshr_miss_latency::.switch_cpus.inst      2423500                       # number of demand (read+write) MSHR miss cycles
system.l2.demand_mshr_miss_latency::.switch_cpus.data    634755500                       # number of demand (read+write) MSHR miss cycles
system.l2.demand_mshr_miss_latency::total    637179000                       # number of demand (read+write) MSHR miss cycles
system.l2.overall_mshr_miss_latency::.switch_cpus.inst      2423500                       # number of overall MSHR miss cycles
system.l2.overall_mshr_miss_latency::.switch_cpus.data    634755500                       # number of overall MSHR miss cycles
system.l2.overall_mshr_miss_latency::total    637179000                       # number of overall MSHR miss cycles
system.l2.demand_mshr_miss_rate::.switch_cpus.inst     0.857143                       # mshr miss rate for demand accesses
system.l2.demand_mshr_miss_rate::.switch_cpus.data     0.970564                       # mshr miss rate for demand accesses
system.l2.demand_mshr_miss_rate::total       0.970154                       # mshr miss rate for demand accesses
system.l2.overall_mshr_miss_rate::.switch_cpus.inst     0.857143                       # mshr miss rate for overall accesses
system.l2.overall_mshr_miss_rate::.switch_cpus.data     0.970564                       # mshr miss rate for overall accesses
system.l2.overall_mshr_miss_rate::total      0.970154                       # mshr miss rate for overall accesses
system.l2.demand_avg_mshr_miss_latency::.switch_cpus.inst 80783.333333                       # average overall mshr miss latency
system.l2.demand_avg_mshr_miss_latency::.switch_cpus.data 67786.789833                       # average overall mshr miss latency
system.l2.demand_avg_mshr_miss_latency::total 67828.294656                       # average overall mshr miss latency
system.l2.overall_avg_mshr_miss_latency::.switch_cpus.inst 80783.333333                       # average overall mshr miss latency
system.l2.overall_avg_mshr_miss_latency::.switch_cpus.data 67786.789833                       # average overall mshr miss latency
system.l2.overall_avg_mshr_miss_latency::total 67828.294656                       # average overall mshr miss latency
system.l2.replacements                           7691                       # number of replacements
system.l2.WritebackDirty_hits::.writebacks         9568                       # number of WritebackDirty hits
system.l2.WritebackDirty_hits::total             9568                       # number of WritebackDirty hits
system.l2.WritebackDirty_accesses::.writebacks         9568                       # number of WritebackDirty accesses(hits+misses)
system.l2.WritebackDirty_accesses::total         9568                       # number of WritebackDirty accesses(hits+misses)
system.l2.WritebackClean_hits::.writebacks           31                       # number of WritebackClean hits
system.l2.WritebackClean_hits::total               31                       # number of WritebackClean hits
system.l2.WritebackClean_accesses::.writebacks           31                       # number of WritebackClean accesses(hits+misses)
system.l2.WritebackClean_accesses::total           31                       # number of WritebackClean accesses(hits+misses)
system.l2.ReadExReq_hits::.switch_cpus.data           60                       # number of ReadExReq hits
system.l2.ReadExReq_hits::total                    60                       # number of ReadExReq hits
system.l2.ReadExReq_misses::.switch_cpus.data         9358                       # number of ReadExReq misses
system.l2.ReadExReq_misses::total                9358                       # number of ReadExReq misses
system.l2.ReadExReq_miss_latency::.switch_cpus.data    727447000                       # number of ReadExReq miss cycles
system.l2.ReadExReq_miss_latency::total     727447000                       # number of ReadExReq miss cycles
system.l2.ReadExReq_accesses::.switch_cpus.data         9418                       # number of ReadExReq accesses(hits+misses)
system.l2.ReadExReq_accesses::total              9418                       # number of ReadExReq accesses(hits+misses)
system.l2.ReadExReq_miss_rate::.switch_cpus.data     0.993629                       # miss rate for ReadExReq accesses
system.l2.ReadExReq_miss_rate::total         0.993629                       # miss rate for ReadExReq accesses
system.l2.ReadExReq_avg_miss_latency::.switch_cpus.data 77735.306689                       # average ReadExReq miss latency
system.l2.ReadExReq_avg_miss_latency::total 77735.306689                       # average ReadExReq miss latency
system.l2.ReadExReq_mshr_misses::.switch_cpus.data         9358                       # number of ReadExReq MSHR misses
system.l2.ReadExReq_mshr_misses::total           9358                       # number of ReadExReq MSHR misses
system.l2.ReadExReq_mshr_miss_latency::.switch_cpus.data    633867000                       # number of ReadExReq MSHR miss cycles
system.l2.ReadExReq_mshr_miss_latency::total    633867000                       # number of ReadExReq MSHR miss cycles
system.l2.ReadExReq_mshr_miss_rate::.switch_cpus.data     0.993629                       # mshr miss rate for ReadExReq accesses
system.l2.ReadExReq_mshr_miss_rate::total     0.993629                       # mshr miss rate for ReadExReq accesses
system.l2.ReadExReq_avg_mshr_miss_latency::.switch_cpus.data 67735.306689                       # average ReadExReq mshr miss latency
system.l2.ReadExReq_avg_mshr_miss_latency::total 67735.306689                       # average ReadExReq mshr miss latency
system.l2.ReadCleanReq_hits::.switch_cpus.inst            5                       # number of ReadCleanReq hits
system.l2.ReadCleanReq_hits::total                  5                       # number of ReadCleanReq hits
system.l2.ReadCleanReq_misses::.switch_cpus.inst           30                       # number of ReadCleanReq misses
system.l2.ReadCleanReq_misses::total               30                       # number of ReadCleanReq misses
system.l2.ReadCleanReq_miss_latency::.switch_cpus.inst      2723500                       # number of ReadCleanReq miss cycles
system.l2.ReadCleanReq_miss_latency::total      2723500                       # number of ReadCleanReq miss cycles
system.l2.ReadCleanReq_accesses::.switch_cpus.inst           35                       # number of ReadCleanReq accesses(hits+misses)
system.l2.ReadCleanReq_accesses::total             35                       # number of ReadCleanReq accesses(hits+misses)
system.l2.ReadCleanReq_miss_rate::.switch_cpus.inst     0.857143                       # miss rate for ReadCleanReq accesses
system.l2.ReadCleanReq_miss_rate::total      0.857143                       # miss rate for ReadCleanReq accesses
[...]
system.switch_cpus.commit.committedInstType_0::FloatDiv            0      0.00%     55.95% # Class of committed instruction
system.switch_cpus.commit.committedInstType_0::FloatMisc            0      0.00%     55.95% # Class of committed instruction
system.switch_cpus.commit.committedInstType_0::FloatSqrt            0      0.00%     55.95% # Class of committed instruction
system.switch_cpus.commit.committedInstType_0::SimdAdd            0      0.00%     55.95% # Class of committed instruction
system.switch_cpus.commit.committedInstType_0::SimdAddAcc            0      0.00%     55.95% # Class of committed instruction
system.switch_cpus.commit.committedInstType_0::SimdAlu       894998      5.08%     61.03% # Class of committed instruction
system.switch_cpus.commit.committedInstType_0::SimdCmp            0      0.00%     61.03% # Class of committed instruction
system.switch_cpus.commit.committedInstType_0::SimdCvt            0      0.00%     61.03% # Class of committed instruction
system.switch_cpus.commit.committedInstType_0::SimdMisc       894944      5.08%     66.11% # Class of committed instruction
system.switch_cpus.commit.committedInstType_0::SimdMult            0      0.00%     66.11% # Class of committed instruction
system.switch_cpus.commit.committedInstType_0::SimdMultAcc            0      0.00%     66.11% # Class of committed instruction
system.switch_cpus.commit.committedInstType_0::SimdShift            0      0.00%     66.11% # Class of committed instruction
system.switch_cpus.commit.committedInstType_0::SimdShiftAcc            0      0.00%     66.11% # Class of committed instruction
system.switch_cpus.commit.committedInstType_0::SimdDiv            0      0.00%     66.11% # Class of committed instruction
system.switch_cpus.commit.committedInstType_0::SimdSqrt            0      0.00%     66.11% # Class of committed instruction
system.switch_cpus.commit.committedInstType_0::SimdFloatAdd      1491554      8.47%     74.58% # Class of committed instruction
system.switch_cpus.commit.committedInstType_0::SimdFloatAlu            0      0.00%     74.58% # Class of committed instruction
system.switch_cpus.commit.committedInstType_0::SimdFloatCmp            0      0.00%     74.58% # Class of committed instruction
system.switch_cpus.commit.committedInstType_0::SimdFloatCvt       745785      4.23%     78.82% # Class of committed instruction
system.switch_cpus.commit.committedInstType_0::SimdFloatDiv            0      0.00%     78.82% # Class of committed instruction
system.switch_cpus.commit.committedInstType_0::SimdFloatMisc            0      0.00%     78.82% # Class of committed instruction
system.switch_cpus.commit.committedInstType_0::SimdFloatMult      1044072      5.93%     84.74% # Class of committed instruction
system.switch_cpus.commit.committedInstType_0::SimdFloatMultAcc            0      0.00%     84.74% # Class of committed instruction
system.switch_cpus.commit.committedInstType_0::SimdFloatSqrt            0      0.00%     84.74% # Class of committed instruction
system.switch_cpus.commit.committedInstType_0::SimdReduceAdd            0      0.00%     84.74% # Class of committed instruction
system.switch_cpus.commit.committedInstType_0::SimdReduceAlu            0      0.00%     84.74% # Class of committed instruction
system.switch_cpus.commit.committedInstType_0::SimdReduceCmp            0      0.00%     84.74% # Class of committed instruction
system.switch_cpus.commit.committedInstType_0::SimdFloatReduceAdd            0      0.00%     84.74% # Class of committed instruction
system.switch_cpus.commit.committedInstType_0::SimdFloatReduceCmp            0      0.00%     84.74% # Class of committed instruction
system.switch_cpus.commit.committedInstType_0::SimdAes            0      0.00%     84.74% # Class of committed instruction
system.switch_cpus.commit.committedInstType_0::SimdAesMix            0      0.00%     84.74% # Class of committed instruction
system.switch_cpus.commit.committedInstType_0::SimdSha1Hash            0      0.00%     84.74% # Class of committed instruction
system.switch_cpus.commit.committedInstType_0::SimdSha1Hash2            0      0.00%     84.74% # Class of committed instruction
system.switch_cpus.commit.committedInstType_0::SimdSha256Hash            0      0.00%     84.74% # Class of committed instruction
system.switch_cpus.commit.committedInstType_0::SimdSha256Hash2            0      0.00%     84.74% # Class of committed instruction
system.switch_cpus.commit.committedInstType_0::SimdShaSigma2            0      0.00%     84.74% # Class of committed instruction
system.switch_cpus.commit.committedInstType_0::SimdShaSigma3            0      0.00%     84.74% # Class of committed instruction
system.switch_cpus.commit.committedInstType_0::SimdPredAlu            0      0.00%     84.74% # Class of committed instruction
system.switch_cpus.commit.committedInstType_0::MemRead       597611      3.39%     88.14% # Class of committed instruction
system.switch_cpus.commit.committedInstType_0::MemWrite       448689      2.55%     90.68% # Class of committed instruction
system.switch_cpus.commit.committedInstType_0::FloatMemRead      1640704      9.32%    100.00% # Class of committed instruction
system.switch_cpus.commit.committedInstType_0::FloatMemWrite           81      0.00%    100.00% # Class of committed instruction
system.switch_cpus.commit.committedInstType_0::IprAccess            0      0.00%    100.00% # Class of committed instruction
system.switch_cpus.commit.committedInstType_0::InstPrefetch            0      0.00%    100.00% # Class of committed instruction
system.switch_cpus.commit.committedInstType_0::total     17613021                       # Class of committed instruction
system.switch_cpus.commit.commitEligibleSamples       894992                       # number cycles where commit BW limit reached
system.switch_cpus.decode.idleCycles           568833                       # Number of cycles decode is idle
system.switch_cpus.decode.blockedCycles       2246122                       # Number of cycles decode is blocked
system.switch_cpus.decode.runCycles            917269                       # Number of cycles decode is running
system.switch_cpus.decode.unblockCycles       1294308                       # Number of cycles decode is unblocking
system.switch_cpus.decode.squashCycles            414                       # Number of cycles decode is squashing
system.switch_cpus.decode.branchResolved       299940                       # Number of times decode resolved a  branch
system.switch_cpus.decode.branchMispred            30                       # Number of times decode detected a branch misprediction
system.switch_cpus.decode.decodedInsts       17652060                       # Number of instructions handled by decode
system.switch_cpus.decode.squashedInsts           110                       # Number of squashed instructions handled by decode
system.switch_cpus.dtb.rdAccesses             2241897                       # TLB accesses on read requests
system.switch_cpus.dtb.wrAccesses              449678                       # TLB accesses on write requests
system.switch_cpus.dtb.rdMisses                    20                       # TLB misses on read requests
system.switch_cpus.dtb.wrMisses                   338                       # TLB misses on write requests
system.switch_cpus.dtb.walker.power_state.pwrStateResidencyTicks::UNDEFINED   3895400000                       # Cumulative time (in ticks) in various power states
system.switch_cpus.fetch.icacheStallCycles      1198680                       # Number of cycles fetch is stalled on an Icache miss
system.switch_cpus.fetch.insts               10025454                       # Number of instructions fetch has processed
system.switch_cpus.fetch.branches             1048648                       # Number of branches that fetch encountered
system.switch_cpus.fetch.predictedBranches       599191                       # Number of branches that fetch has predicted taken
system.switch_cpus.fetch.cycles               3827511                       # Number of cycles fetch has run and was not squashing or blocked
system.switch_cpus.fetch.squashCycles             880                       # Number of cycles fetch has spent squashing
system.switch_cpus.fetch.miscStallCycles           29                       # Number of cycles fetch has spent waiting on interrupts,or bad addresses, or out of MSHRs
system.switch_cpus.fetch.pendingTrapStallCycles          292                       # Number of stall cycles due to pending traps
system.switch_cpus.fetch.cacheLines           1197804                       # Number of cache lines fetched
system.switch_cpus.fetch.icacheSquashes           139                       # Number of outstanding Icache misses that were squashed
system.switch_cpus.fetch.nisnDist::samples      5026952                       # Number of instructions fetched each cycle (Total)
system.switch_cpus.fetch.nisnDist::mean      3.512744                       # Number of instructions fetched each cycle (Total)
system.switch_cpus.fetch.nisnDist::stdev     3.573696                       # Number of instructions fetched each cycle (Total)
system.switch_cpus.fetch.nisnDist::underflows            0      0.00%      0.00% # Number of instructions fetched each cycle (Total)
system.switch_cpus.fetch.nisnDist::0          2075752     41.29%     41.29% # Number of instructions fetched each cycle (Total)
system.switch_cpus.fetch.nisnDist::1           259667      5.17%     46.46% # Number of instructions fetched each cycle (Total)
system.switch_cpus.fetch.nisnDist::2           372651      7.41%     53.87% # Number of instructions fetched each cycle (Total)
system.switch_cpus.fetch.nisnDist::3           110782      2.20%     56.07% # Number of instructions fetched each cycle (Total)
system.switch_cpus.fetch.nisnDist::4           112921      2.25%     58.32% # Number of instructions fetched each cycle (Total)
system.switch_cpus.fetch.nisnDist::5           111028      2.21%     60.53% # Number of instructions fetched each cycle (Total)
system.switch_cpus.fetch.nisnDist::6           149505      2.97%     63.50% # Number of instructions fetched each cycle (Total)
system.switch_cpus.fetch.nisnDist::7           259943      5.17%     68.67% # Number of instructions fetched each cycle (Total)
system.switch_cpus.fetch.nisnDist::8          1574703     31.33%    100.00% # Number of instructions fetched each cycle (Total)
system.switch_cpus.fetch.nisnDist::overflows            0      0.00%    100.00% # Number of instructions fetched each cycle (Total)
system.switch_cpus.fetch.nisnDist::min_value            0                       # Number of instructions fetched each cycle (Total)
system.switch_cpus.fetch.nisnDist::max_value            8                       # Number of instructions fetched each cycle (Total)
system.switch_cpus.fetch.nisnDist::total      5026952                       # Number of instructions fetched each cycle (Total)
system.switch_cpus.fetch.branchRate          0.208593                       # Number of branch fetches per cycle
system.switch_cpus.fetch.rate                1.994221                       # Number of inst fetches per cycle
system.switch_cpus.itb.rdAccesses                   0                       # TLB accesses on read requests
system.switch_cpus.itb.wrAccesses             1197846                       # TLB accesses on write requests
system.switch_cpus.itb.rdMisses                     0                       # TLB misses on read requests
system.switch_cpus.itb.wrMisses                    57                       # TLB misses on write requests
system.switch_cpus.itb.walker.power_state.pwrStateResidencyTicks::UNDEFINED   3895400000                       # Cumulative time (in ticks) in various power states
system.switch_cpus.lsq0.forwLoads              149525                       # Number of loads that had data forwarded from stores
system.switch_cpus.lsq0.squashedLoads            3912                       # Number of loads squashed
system.switch_cpus.lsq0.ignoredResponses            4                       # Number of memory responses ignored because the instruction is squashed
system.switch_cpus.lsq0.memOrderViolation            9                       # Number of memory ordering violations
system.switch_cpus.lsq0.squashedStores           1427                       # Number of stores squashed
system.switch_cpus.lsq0.rescheduledLoads           24                       # Number of loads that were rescheduled
system.switch_cpus.lsq0.blockedByCache             73                       # Number of times an access to memory failed due to the cache being blocked
system.switch_cpus.power_state.pwrStateResidencyTicks::OFF   3895400000                       # Cumulative time (in ticks) in various power states
system.switch_cpus.rename.squashCycles            414                       # Number of cycles rename is squashing
system.switch_cpus.rename.idleCycles           939037                       # Number of cycles rename is idle
system.switch_cpus.rename.blockCycles            9331                       # Number of cycles rename is blocking
system.switch_cpus.rename.serializeStallCycles            0                       # count of cycles rename stalledfor serializing inst
system.switch_cpus.rename.runCycles           1841298                       # Number of cycles rename is running
system.switch_cpus.rename.unblockCycles       2236866                       # Number of cycles rename is unblocking
system.switch_cpus.rename.renamedInsts       17650202                       # Number of instructions processed by rename
system.switch_cpus.rename.ROBFullEvents           145                       # Number of times rename has blocked due to ROB full
system.switch_cpus.rename.IQFullEvents        1846596                       # Number of times rename has blocked due to IQ full
system.switch_cpus.rename.SQFullEvents          93398                       # Number of times rename has blocked due to SQ full
system.switch_cpus.rename.renamedOperands     19744615                       # Number of destination operands rename has renamed
system.switch_cpus.rename.lookups            39639138                       # Number of register rename lookups that rename has made
system.switch_cpus.rename.intLookups         16765438                       # Number of integer rename lookups
system.switch_cpus.rename.fpLookups          12994981                       # Number of floating rename lookups
system.switch_cpus.rename.committedMaps      19703464                       # Number of HB maps that are committed
system.switch_cpus.rename.undoneMaps            41003                       # Number of HB maps that are undone due to squashing
system.switch_cpus.rename.serializing               0                       # count of serializing insts renamed
system.switch_cpus.rename.tempSerializing            0                       # count of temporary serializing insts renamed
system.switch_cpus.rename.skidInsts           5209606                       # count of insts added to the skid buffer
system.switch_cpus.rob.reads                 21767083                       # The number of ROB reads
system.switch_cpus.rob.writes                35285404                       # The number of ROB writes
system.switch_cpus.thread_0.numInsts         10000000                       # Number of Instructions committed
system.switch_cpus.thread_0.numOps           17613021                       # Number of Ops committed
system.switch_cpus.thread_0.numMemRefs              0                       # Number of Memory References
system.tol2bus.trans_dist::ReadResp               265                       # Transaction distribution
system.tol2bus.trans_dist::WritebackDirty        13181                       # Transaction distribution
system.tol2bus.trans_dist::WritebackClean           31                       # Transaction distribution
system.tol2bus.trans_dist::CleanEvict            4157                       # Transaction distribution
system.tol2bus.trans_dist::ReadExReq             9418                       # Transaction distribution
system.tol2bus.trans_dist::ReadExResp            9417                       # Transaction distribution
system.tol2bus.trans_dist::ReadCleanReq            35                       # Transaction distribution
system.tol2bus.trans_dist::ReadSharedReq          230                       # Transaction distribution
system.tol2bus.pkt_count_system.cpu.icache.mem_side_port::system.l2.cpu_side_port          101                       # Packet count per connected requestor and responder (bytes)
system.tol2bus.pkt_count_system.cpu.dcache.mem_side_port::system.l2.cpu_side_port        28942                       # Packet count per connected requestor and responder (bytes)
system.tol2bus.pkt_count::total                 29043                       # Packet count per connected requestor and responder (bytes)
system.tol2bus.pkt_size_system.cpu.icache.mem_side_port::system.l2.cpu_side_port         4224                       # Cumulative packet size per connected requestor and responder (bytes)
system.tol2bus.pkt_size_system.cpu.dcache.mem_side_port::system.l2.cpu_side_port      1229760                       # Cumulative packet size per connected requestor and responder (bytes)
system.tol2bus.pkt_size::total                1233984                       # Cumulative packet size per connected requestor and responder (bytes)
system.tol2bus.snoops                            7691                       # Total snoops (count)
system.tol2bus.snoopTraffic                    231232                       # Total snoop traffic (bytes)
system.tol2bus.snoop_fanout::samples            17374                       # Request fanout histogram
system.tol2bus.snoop_fanout::mean            0.056809                       # Request fanout histogram
system.tol2bus.snoop_fanout::stdev           0.231484                       # Request fanout histogram
system.tol2bus.snoop_fanout::underflows             0      0.00%      0.00% # Request fanout histogram
system.tol2bus.snoop_fanout::0                  16387     94.32%     94.32% # Request fanout histogram
system.tol2bus.snoop_fanout::1                    987      5.68%    100.00% # Request fanout histogram
system.tol2bus.snoop_fanout::2                      0      0.00%    100.00% # Request fanout histogram
system.tol2bus.snoop_fanout::3                      0      0.00%    100.00% # Request fanout histogram
system.tol2bus.snoop_fanout::4                      0      0.00%    100.00% # Request fanout histogram
system.tol2bus.snoop_fanout::overflows              0      0.00%    100.00% # Request fanout histogram
system.tol2bus.snoop_fanout::min_value              0                       # Request fanout histogram
system.tol2bus.snoop_fanout::max_value              1                       # Request fanout histogram
system.tol2bus.snoop_fanout::total              17374                       # Request fanout histogram
system.tol2bus.power_state.pwrStateResidencyTicks::UNDEFINED   3895400000                       # Cumulative time (in ticks) in various power states
system.tol2bus.reqLayer0.occupancy           19279500                       # Layer occupancy (ticks)
system.tol2bus.reqLayer0.utilization              0.8                       # Layer utilization (%)
system.tol2bus.respLayer0.occupancy             52500                       # Layer occupancy (ticks)
system.tol2bus.respLayer0.utilization             0.0                       # Layer utilization (%)
system.tol2bus.respLayer1.occupancy          14470500                       # Layer occupancy (ticks)
system.tol2bus.respLayer1.utilization             0.6                       # Layer utilization (%)
system.voltage_domain.voltage                       1                       # Voltage in Volts

---------- End Simulation Statistics   ----------
