
---------- Begin Simulation Statistics ----------
final_tick                                 8894416500                       # Number of ticks from beginning of simulation (restored from checkpoints and never reset)
host_inst_rate                                 128807                       # Simulator instruction rate (inst/s)
host_mem_usage                                8594204                       # Number of bytes of host memory used
host_op_rate                                   205412                       # Simulator op (including micro ops) rate (op/s)
host_seconds                                    85.40                       # Real time elapsed on the host
host_tick_rate                               91861432                       # Simulator tick rate (ticks/s)
sim_freq                                 1000000000000                       # Frequency of simulated ticks
sim_insts                                    11000001                       # Number of instructions simulated
sim_ops                                      17542007                       # Number of ops (including micro ops) simulated
sim_seconds                                  0.007845                       # Number of seconds simulated
sim_ticks                                  7844873000                       # Number of ticks simulated
system.cpu.committedInsts                           0                       # Number of instructions committed
system.cpu.committedOps                             0                       # Number of ops (including micro ops) committed
system.cpu.idle_fraction                            0                       # Percentage of idle cycles
system.cpu.not_idle_fraction                        1                       # Percentage of non-idle cycles
system.cpu.numCycles                                0                       # number of cpu cycles simulated
system.cpu.numWorkItemsCompleted                    0                       # number of work items this cpu completed
system.cpu.numWorkItemsStarted                      0                       # number of work items this cpu started
system.cpu.num_busy_cycles                          0                       # Number of busy cycles
system.cpu.num_conditional_control_insts            0                       # number of instructions that are conditional controls
system.cpu.num_fp_alu_accesses                      0                       # Number of float alu accesses
system.cpu.num_fp_insts                             0                       # number of float instructions
system.cpu.num_fp_register_reads                    0                       # number of times the floating registers were read
system.cpu.num_fp_register_writes                   0                       # number of times the floating registers were written
system.cpu.num_func_calls                           0                       # number of times a function call or return occured
system.cpu.num_idle_cycles                          0                       # Number of idle cycles
system.cpu.num_int_alu_accesses                     0                       # Number of integer alu accesses
system.cpu.num_int_insts                            0                       # number of integer instructions
system.cpu.num_int_register_reads                   0                       # number of times the integer registers were read
system.cpu.num_int_register_writes                  0                       # number of times the integer registers were written
system.cpu.num_load_insts                           0                       # Number of load instructions
system.cpu.num_mem_refs                             0                       # number of memory refs
system.cpu.num_store_insts                          0                       # Number of store instructions
system.cpu.num_vec_alu_accesses                     0                       # Number of vector alu accesses
system.cpu.num_vec_insts                            0                       # number of vector instructions
system.cpu.num_vec_register_reads                   0                       # number of times the vector registers were read
system.cpu.num_vec_register_writes                  0                       # number of times the vector registers were written
system.cpu.op_class::No_OpClass                     0                       # Class of executed instruction
system.cpu.op_class::IntAlu                         0                       # Class of executed instruction
system.cpu.op_class::IntMult                        0                       # Class of executed instruction
system.cpu.op_class::IntDiv                         0                       # Class of executed instruction
system.cpu.op_class::FloatAdd                       0                       # Class of executed instruction
system.cpu.op_class::FloatCmp                       0                       # Class of executed instruction
system.cpu.op_class::FloatCvt                       0                       # Class of executed instruction
system.cpu.op_class::FloatMult                      0                       # Class of executed instruction
system.cpu.op_class::FloatMultAcc                   0                       # Class of executed instruction
system.cpu.op_class::FloatDiv                       0                       # Class of executed instruction
system.cpu.op_class::FloatMisc                      0                       # Class of executed instruction
system.cpu.op_class::FloatSqrt                      0                       # Class of executed instruction
system.cpu.op_class::SimdAdd                        0                       # Class of executed instruction
system.cpu.op_class::SimdAddAcc                     0                       # Class of executed instruction
system.cpu.op_class::SimdAlu                        0                       # Class of executed instruction
system.cpu.op_class::SimdCmp                        0                       # Class of executed instruction
system.cpu.op_class::SimdCvt                        0                       # Class of executed instruction
system.cpu.op_class::SimdMisc                       0                       # Class of executed instruction
system.cpu.op_class::SimdMult                       0                       # Class of executed instruction
system.cpu.op_class::SimdMultAcc                    0                       # Class of executed instruction
system.cpu.op_class::SimdShift                      0                       # Class of executed instruction
system.cpu.op_class::SimdShiftAcc                   0                       # Class of executed instruction
system.cpu.op_class::SimdDiv                        0                       # Class of executed instruction
system.cpu.op_class::SimdSqrt                       0                       # Class of executed instruction
system.cpu.op_class::SimdFloatAdd                   0                       # Class of executed instruction
system.cpu.op_class::SimdFloatAlu                   0                       # Class of executed instruction
system.cpu.op_class::SimdFloatCmp                   0                       # Class of executed instruction
system.cpu.op_class::SimdFloatCvt                   0                       # Class of executed instruction
system.cpu.op_class::SimdFloatDiv                   0                       # Class of executed instruction
system.cpu.op_class::SimdFloatMisc                  0                       # Class of executed instruction
system.cpu.op_class::SimdFloatMult                  0                       # Class of executed instruction
system.cpu.op_class::SimdFloatMultAcc               0                       # Class of executed instruction
system.cpu.op_class::SimdFloatSqrt                  0                       # Class of executed instruction
system.cpu.op_class::SimdReduceAdd                  0                       # Class of executed instruction
system.cpu.op_class::SimdReduceAlu                  0                       # Class of executed instruction
system.cpu.op_class::SimdReduceCmp                  0                       # Class of executed instruction
system.cpu.op_class::SimdFloatReduceAdd             0                       # Class of executed instruction
system.cpu.op_class::SimdFloatReduceCmp             0                       # Class of executed instruction
system.cpu.op_class::SimdAes                        0                       # Class of executed instruction
system.cpu.op_class::SimdAesMix                     0                       # Class of executed instruction
system.cpu.op_class::SimdSha1Hash                   0                       # Class of executed instruction
system.cpu.op_class::SimdSha1Hash2                  0                       # Class of executed instruction
system.cpu.op_class::SimdSha256Hash                 0                       # Class of executed instruction
system.cpu.op_class::SimdSha256Hash2                0                       # Class of executed instruction
system.cpu.op_class::SimdShaSigma2                  0                       # Class of executed instruction
system.cpu.op_class::SimdShaSigma3                  0                       # Class of executed instruction
system.cpu.op_class::SimdPredAlu                    0                       # Class of executed instruction
system.cpu.op_class::MemRead                        0                       # Class of executed instruction
system.cpu.op_class::MemWrite                       0                       # Class of executed instruction
system.cpu.op_class::FloatMemRead                   0                       # Class of executed instruction
system.cpu.op_class::FloatMemWrite                  0                       # Class of executed instruction
system.cpu.op_class::IprAccess                      0                       # Class of executed instruction
system.cpu.op_class::InstPrefetch                   0                       # Class of executed instruction
system.cpu.op_class::total                          0                       # Class of executed instruction
system.cpu.workload.numSyscalls                     8                       # Number of system calls
system.membus.snoop_filter.hit_multi_requests            0                       # Number of requests hitting in the snoop filter with multiple (>1) holders of the requested data.
system.membus.snoop_filter.hit_multi_snoops            0                       # Number of snoops hitting in the snoop filter with multiple (>1) holders of the requested data.
system.membus.snoop_filter.hit_single_requests        37358                       # Number of requests hitting in the snoop filter with a single holder of the requested data.
system.membus.snoop_filter.hit_single_snoops            0                       # Number of snoops hitting in the snoop filter with a single holder of the requested data.
system.membus.snoop_filter.tot_requests         77522                       # Total number of requests made to the snoop filter.
system.membus.snoop_filter.tot_snoops               0                       # Total number of snoops made to the snoop filter.
system.switch_cpus.cc_regfile_reads          10346175                       # number of cc regfile reads
system.switch_cpus.cc_regfile_writes          9423164                       # number of cc regfile writes
system.switch_cpus.committedInsts            10000000                       # Number of Instructions Simulated
system.switch_cpus.committedOps              15783158                       # Number of Ops (including micro ops) Simulated
system.switch_cpus.cpi                       1.568975                       # CPI: Cycles Per Instruction
system.switch_cpus.cpi_total                 1.568975                       # CPI: Total CPI of All Threads
system.switch_cpus.fp_regfile_reads           1173150                       # number of floating regfile reads
system.switch_cpus.fp_regfile_writes           667764                       # number of floating regfile writes
system.switch_cpus.idleCycles                   83236                       # Total number of cycles that the CPU has spent unscheduled due to idling
system.switch_cpus.iew.branchMispredicts       370955                       # Number of branch mispredicts detected at execute
system.switch_cpus.iew.exec_branches          1610406                       # Number of branches executed
system.switch_cpus.iew.exec_nop                     0                       # number of nop insts executed
system.switch_cpus.iew.exec_rate             1.374618                       # Inst execution rate
system.switch_cpus.iew.exec_refs              5535093                       # number of memory reference insts executed
system.switch_cpus.iew.exec_stores            1729462                       # Number of stores executed
system.switch_cpus.iew.exec_swp                     0                       # number of swp insts executed
system.switch_cpus.iew.iewBlockCycles         1357893                       # Number of cycles IEW is blocking
system.switch_cpus.iew.iewDispLoadInsts       4341956                       # Number of dispatched load instructions
system.switch_cpus.iew.iewDispNonSpecInsts          745                       # Number of dispatched non-speculative instructions
system.switch_cpus.iew.iewDispSquashedInsts         4048                       # Number of squashed instructions skipped by dispatch
system.switch_cpus.iew.iewDispStoreInsts      2062863                       # Number of dispatched store instructions
system.switch_cpus.iew.iewDispatchedInsts     25460136                       # Number of instructions dispatched to IQ
system.switch_cpus.iew.iewExecLoadInsts       3805631                       # Number of load instructions executed
system.switch_cpus.iew.iewExecSquashedInsts       689583                       # Number of squashed instructions skipped in execute
system.switch_cpus.iew.iewExecutedInsts      21567415                       # Number of executed instructions
system.switch_cpus.iew.iewIQFullEvents           2703                       # Number of times the IQ has become full, causing a stall
system.switch_cpus.iew.iewIdleCycles                0                       # Number of cycles IEW is idle
system.switch_cpus.iew.iewLSQFullEvents       2396119                       # Number of times the LSQ has become full, causing a stall
system.switch_cpus.iew.iewSquashCycles         281611                       # Number of cycles IEW is squashing
system.switch_cpus.iew.iewUnblockCycles       2400056                       # Number of cycles IEW is unblocking
system.switch_cpus.iew.memOrderViolationEvents          253                       # Number of memory order violations
system.switch_cpus.iew.predictedNotTakenIncorrect       203447                       # Number of branches that were predicted not taken incorrectly
system.switch_cpus.iew.predictedTakenIncorrect       167508                       # Number of branches that were predicted taken incorrectly
system.switch_cpus.iew.wb_consumers          26657087                       # num instructions consuming a value
system.switch_cpus.iew.wb_count              21108751                       # cumulative count of insts written-back
system.switch_cpus.iew.wb_fanout             0.584845                       # average fanout of values written-back
system.switch_cpus.iew.wb_producers          15590274                       # num instructions producing a value
system.switch_cpus.iew.wb_rate               1.345385                       # insts written-back per cycle
system.switch_cpus.iew.wb_sent               21299929                       # cumulative count of insts sent to commit
system.switch_cpus.int_regfile_reads         33888828                       # number of integer regfile reads
system.switch_cpus.int_regfile_writes        17093154                       # number of integer regfile writes
system.switch_cpus.ipc                       0.637359                       # IPC: Instructions Per Cycle
system.switch_cpus.ipc_total                 0.637359                       # IPC: Total IPC of All Threads
system.switch_cpus.iq.FU_type_0::No_OpClass       283447      1.27%      1.27% # Type of FU issued
system.switch_cpus.iq.FU_type_0::IntAlu      15625447     70.20%     71.48% # Type of FU issued
system.switch_cpus.iq.FU_type_0::IntMult           11      0.00%     71.48% # Type of FU issued
system.switch_cpus.iq.FU_type_0::IntDiv         28682      0.13%     71.61% # Type of FU issued
system.switch_cpus.iq.FU_type_0::FloatAdd       151488      0.68%     72.29% # Type of FU issued
system.switch_cpus.iq.FU_type_0::FloatCmp            0      0.00%     72.29% # Type of FU issued
system.switch_cpus.iq.FU_type_0::FloatCvt         1201      0.01%     72.29% # Type of FU issued
system.switch_cpus.iq.FU_type_0::FloatMult            0      0.00%     72.29% # Type of FU issued
system.switch_cpus.iq.FU_type_0::FloatMultAcc            0      0.00%     72.29% # Type of FU issued
system.switch_cpus.iq.FU_type_0::FloatDiv            0      0.00%     72.29% # Type of FU issued
system.switch_cpus.iq.FU_type_0::FloatMisc            0      0.00%     72.29% # Type of FU issued
system.switch_cpus.iq.FU_type_0::FloatSqrt            0      0.00%     72.29% # Type of FU issued
system.switch_cpus.iq.FU_type_0::SimdAdd         5010      0.02%     72.32% # Type of FU issued
system.switch_cpus.iq.FU_type_0::SimdAddAcc            0      0.00%     72.32% # Type of FU issued
system.switch_cpus.iq.FU_type_0::SimdAlu        76627      0.34%     72.66% # Type of FU issued
system.switch_cpus.iq.FU_type_0::SimdCmp            0      0.00%     72.66% # Type of FU issued
system.switch_cpus.iq.FU_type_0::SimdCvt        12777      0.06%     72.72% # Type of FU issued
system.switch_cpus.iq.FU_type_0::SimdMisc       287171      1.29%     74.01% # Type of FU issued
system.switch_cpus.iq.FU_type_0::SimdMult            0      0.00%     74.01% # Type of FU issued
system.switch_cpus.iq.FU_type_0::SimdMultAcc            0      0.00%     74.01% # Type of FU issued
system.switch_cpus.iq.FU_type_0::SimdShift         4283      0.02%     74.03% # Type of FU issued
system.switch_cpus.iq.FU_type_0::SimdShiftAcc            0      0.00%     74.03% # Type of FU issued
system.switch_cpus.iq.FU_type_0::SimdDiv            0      0.00%     74.03% # Type of FU issued
system.switch_cpus.iq.FU_type_0::SimdSqrt            0      0.00%     74.03% # Type of FU issued
system.switch_cpus.iq.FU_type_0::SimdFloatAdd            0      0.00%     74.03% # Type of FU issued
system.switch_cpus.iq.FU_type_0::SimdFloatAlu            0      0.00%     74.03% # Type of FU issued
system.switch_cpus.iq.FU_type_0::SimdFloatCmp            0      0.00%     74.03% # Type of FU issued
system.switch_cpus.iq.FU_type_0::SimdFloatCvt        28628      0.13%     74.16% # Type of FU issued
system.switch_cpus.iq.FU_type_0::SimdFloatDiv            0      0.00%     74.16% # Type of FU issued
system.switch_cpus.iq.FU_type_0::SimdFloatMisc            0      0.00%     74.16% # Type of FU issued
system.switch_cpus.iq.FU_type_0::SimdFloatMult        11542      0.05%     74.21% # Type of FU issued
system.switch_cpus.iq.FU_type_0::SimdFloatMultAcc            0      0.00%     74.21% # Type of FU issued
system.switch_cpus.iq.FU_type_0::SimdFloatSqrt            0      0.00%     74.21% # Type of FU issued
system.switch_cpus.iq.FU_type_0::SimdReduceAdd            0      0.00%     74.21% # Type of FU issued
system.switch_cpus.iq.FU_type_0::SimdReduceAlu            0      0.00%     74.21% # Type of FU issued
system.switch_cpus.iq.FU_type_0::SimdReduceCmp            0      0.00%     74.21% # Type of FU issued
system.switch_cpus.iq.FU_type_0::SimdFloatReduceAdd            0      0.00%     74.21% # Type of FU issued
system.switch_cpus.iq.FU_type_0::SimdFloatReduceCmp            0      0.00%     74.21% # Type of FU issued
system.switch_cpus.iq.FU_type_0::SimdAes            0      0.00%     74.21% # Type of FU issued
system.switch_cpus.iq.FU_type_0::SimdAesMix            0      0.00%     74.21% # Type of FU issued
system.switch_cpus.iq.FU_type_0::SimdSha1Hash            0      0.00%     74.21% # Type of FU issued
system.switch_cpus.iq.FU_type_0::SimdSha1Hash2            0      0.00%     74.21% # Type of FU issued
system.switch_cpus.iq.FU_type_0::SimdSha256Hash            0      0.00%     74.21% # Type of FU issued
system.switch_cpus.iq.FU_type_0::SimdSha256Hash2            0      0.00%     74.21% # Type of FU issued
system.switch_cpus.iq.FU_type_0::SimdShaSigma2            0      0.00%     74.21% # Type of FU issued
system.switch_cpus.iq.FU_type_0::SimdShaSigma3            0      0.00%     74.21% # Type of FU issued
system.switch_cpus.iq.FU_type_0::SimdPredAlu            0      0.00%     74.21% # Type of FU issued
system.switch_cpus.iq.FU_type_0::MemRead      3860663     17.35%     91.55% # Type of FU issued
system.switch_cpus.iq.FU_type_0::MemWrite      1423649      6.40%     97.95% # Type of FU issued
system.switch_cpus.iq.FU_type_0::FloatMemRead        84722      0.38%     98.33% # Type of FU issued
system.switch_cpus.iq.FU_type_0::FloatMemWrite       371652      1.67%    100.00% # Type of FU issued
system.switch_cpus.iq.FU_type_0::IprAccess            0      0.00%    100.00% # Type of FU issued
system.switch_cpus.iq.FU_type_0::InstPrefetch            0      0.00%    100.00% # Type of FU issued
system.switch_cpus.iq.FU_type_0::total       22257000                       # Type of FU issued
system.switch_cpus.iq.fp_alu_accesses         1113298                       # Number of floating point alu accesses
system.switch_cpus.iq.fp_inst_queue_reads      2187879                       # Number of floating instruction queue reads
system.switch_cpus.iq.fp_inst_queue_wakeup_accesses      1017957                       # Number of floating instruction queue wakeup accesses
system.switch_cpus.iq.fp_inst_queue_writes      1518080                       # Number of floating instruction queue writes
system.switch_cpus.iq.fu_busy_cnt              264759                       # FU busy when requested
system.switch_cpus.iq.fu_busy_rate           0.011896                       # FU busy rate (busy events/executed inst)
system.switch_cpus.iq.fu_full::No_OpClass            0      0.00%      0.00% # attempts to use FU when none available
system.switch_cpus.iq.fu_full::IntAlu          116160     43.87%     43.87% # attempts to use FU when none available
system.switch_cpus.iq.fu_full::IntMult              0      0.00%     43.87% # attempts to use FU when none available
system.switch_cpus.iq.fu_full::IntDiv               0      0.00%     43.87% # attempts to use FU when none available
system.switch_cpus.iq.fu_full::FloatAdd             0      0.00%     43.87% # attempts to use FU when none available
system.switch_cpus.iq.fu_full::FloatCmp             0      0.00%     43.87% # attempts to use FU when none available
system.switch_cpus.iq.fu_full::FloatCvt             0      0.00%     43.87% # attempts to use FU when none available
system.switch_cpus.iq.fu_full::FloatMult            0      0.00%     43.87% # attempts to use FU when none available
system.switch_cpus.iq.fu_full::FloatMultAcc            0      0.00%     43.87% # attempts to use FU when none available
system.switch_cpus.iq.fu_full::FloatDiv             0      0.00%     43.87% # attempts to use FU when none available
system.switch_cpus.iq.fu_full::FloatMisc            0      0.00%     43.87% # attempts to use FU when none available
system.switch_cpus.iq.fu_full::FloatSqrt            0      0.00%     43.87% # attempts to use FU when none available
system.switch_cpus.iq.fu_full::SimdAdd             12      0.00%     43.88% # attempts to use FU when none available
system.switch_cpus.iq.fu_full::SimdAddAcc            0      0.00%     43.88% # attempts to use FU when none available
system.switch_cpus.iq.fu_full::SimdAlu            135      0.05%     43.93% # attempts to use FU when none available
system.switch_cpus.iq.fu_full::SimdCmp              0      0.00%     43.93% # attempts to use FU when none available
system.switch_cpus.iq.fu_full::SimdCvt            181      0.07%     44.00% # attempts to use FU when none available
system.switch_cpus.iq.fu_full::SimdMisc         33970     12.83%     56.83% # attempts to use FU when none available
system.switch_cpus.iq.fu_full::SimdMult             0      0.00%     56.83% # attempts to use FU when none available
system.switch_cpus.iq.fu_full::SimdMultAcc            0      0.00%     56.83% # attempts to use FU when none available
system.switch_cpus.iq.fu_full::SimdShift           41      0.02%     56.84% # attempts to use FU when none available
system.switch_cpus.iq.fu_full::SimdShiftAcc            0      0.00%     56.84% # attempts to use FU when none available
system.switch_cpus.iq.fu_full::SimdDiv              0      0.00%     56.84% # attempts to use FU when none available
system.switch_cpus.iq.fu_full::SimdSqrt             0      0.00%     56.84% # attempts to use FU when none available
system.switch_cpus.iq.fu_full::SimdFloatAdd            0      0.00%     56.84% # attempts to use FU when none available
system.switch_cpus.iq.fu_full::SimdFloatAlu            0      0.00%     56.84% # attempts to use FU when none available
system.switch_cpus.iq.fu_full::SimdFloatCmp            0      0.00%     56.84% # attempts to use FU when none available
system.switch_cpus.iq.fu_full::SimdFloatCvt            0      0.00%     56.84% # attempts to use FU when none available
system.switch_cpus.iq.fu_full::SimdFloatDiv            0      0.00%     56.84% # attempts to use FU when none available
system.switch_cpus.iq.fu_full::SimdFloatMisc            0      0.00%     56.84% # attempts to use FU when none available
system.switch_cpus.iq.fu_full::SimdFloatMult            0      0.00%     56.84% # attempts to use FU when none available
system.switch_cpus.iq.fu_full::SimdFloatMultAcc            0      0.00%     56.84% # attempts to use FU when none available
system.switch_cpus.iq.fu_full::SimdFloatSqrt            0      0.00%     56.84% # attempts to use FU when none available
system.switch_cpus.iq.fu_full::SimdReduceAdd            0      0.00%     56.84% # attempts to use FU when none available
system.switch_cpus.iq.fu_full::SimdReduceAlu            0      0.00%     56.84% # attempts to use FU when none available
system.switch_cpus.iq.fu_full::SimdReduceCmp            0      0.00%     56.84% # attempts to use FU when none available
system.switch_cpus.iq.fu_full::SimdFloatReduceAdd            0      0.00%     56.84% # attempts to use FU when none available
system.switch_cpus.iq.fu_full::SimdFloatReduceCmp            0      0.00%     56.84% # attempts to use FU when none available
system.switch_cpus.iq.fu_full::SimdAes              0      0.00%     56.84% # attempts to use FU when none available
system.switch_cpus.iq.fu_full::SimdAesMix            0      0.00%     56.84% # attempts to use FU when none available
system.switch_cpus.iq.fu_full::SimdSha1Hash            0      0.00%     56.84% # attempts to use FU when none available
system.switch_cpus.iq.fu_full::SimdSha1Hash2            0      0.00%     56.84% # attempts to use FU when none available
system.switch_cpus.iq.fu_full::SimdSha256Hash            0      0.00%     56.84% # attempts to use FU when none available
system.switch_cpus.iq.fu_full::SimdSha256Hash2            0      0.00%     56.84% # attempts to use FU when none available
system.switch_cpus.iq.fu_full::SimdShaSigma2            0      0.00%     56.84% # attempts to use FU when none available
system.switch_cpus.iq.fu_full::SimdShaSigma3            0      0.00%     56.84% # attempts to use FU when none available
system.switch_cpus.iq.fu_full::SimdPredAlu            0      0.00%     56.84% # attempts to use FU when none available
system.switch_cpus.iq.fu_full::MemRead          98848     37.34%     94.18% # attempts to use FU when none available
system.switch_cpus.iq.fu_full::MemWrite          9613      3.63%     97.81% # attempts to use FU when none available
system.switch_cpus.iq.fu_full::FloatMemRead          666      0.25%     98.06% # attempts to use FU when none available
system.switch_cpus.iq.fu_full::FloatMemWrite         5133      1.94%    100.00% # attempts to use FU when none available
system.switch_cpus.iq.fu_full::IprAccess            0      0.00%    100.00% # attempts to use FU when none available
system.switch_cpus.iq.fu_full::InstPrefetch            0      0.00%    100.00% # attempts to use FU when none available
system.switch_cpus.iq.int_alu_accesses       21125014                       # Number of integer alu accesses
system.switch_cpus.iq.int_inst_queue_reads     58240836                       # Number of integer instruction queue reads
system.switch_cpus.iq.int_inst_queue_wakeup_accesses     20090794                       # Number of integer instruction queue wakeup accesses
system.switch_cpus.iq.int_inst_queue_writes     33619189                       # Number of integer instruction queue writes
system.switch_cpus.iq.iqInstsAdded           25459246                       # Number of instructions added to the IQ (excludes non-spec)
system.switch_cpus.iq.iqInstsIssued          22257000                       # Number of instructions issued
system.switch_cpus.iq.iqNonSpecInstsAdded          890                       # Number of non-speculative instructions added to the IQ
system.switch_cpus.iq.iqSquashedInstsExamined      9676898                       # Number of squashed instructions iterated over during squash; mainly for profiling
system.switch_cpus.iq.iqSquashedInstsIssued        43448                       # Number of squashed instructions issued
system.switch_cpus.iq.iqSquashedNonSpecRemoved          209                       # Number of squashed non-spec instructions that were removed
system.switch_cpus.iq.iqSquashedOperandsExamined     15486833                       # Number of squashed operands that are examined and possibly removed from graph
system.switch_cpus.iq.issued_per_cycle::samples     15606510                       # Number of insts issued each cycle
system.switch_cpus.iq.issued_per_cycle::mean     1.426136                       # Number of insts issued each cycle
system.switch_cpus.iq.issued_per_cycle::stdev     2.072222                       # Number of insts issued each cycle
system.switch_cpus.iq.issued_per_cycle::underflows            0      0.00%      0.00% # Number of insts issued each cycle
system.switch_cpus.iq.issued_per_cycle::0      8830977     56.59%     56.59% # Number of insts issued each cycle
system.switch_cpus.iq.issued_per_cycle::1      1623845     10.40%     66.99% # Number of insts issued each cycle
system.switch_cpus.iq.issued_per_cycle::2      1185145      7.59%     74.58% # Number of insts issued each cycle
system.switch_cpus.iq.issued_per_cycle::3      1141093      7.31%     81.90% # Number of insts issued each cycle
system.switch_cpus.iq.issued_per_cycle::4       994334      6.37%     88.27% # Number of insts issued each cycle
system.switch_cpus.iq.issued_per_cycle::5       756920      4.85%     93.12% # Number of insts issued each cycle
system.switch_cpus.iq.issued_per_cycle::6       640553      4.10%     97.22% # Number of insts issued each cycle
system.switch_cpus.iq.issued_per_cycle::7       234812      1.50%     98.73% # Number of insts issued each cycle
system.switch_cpus.iq.issued_per_cycle::8       198831      1.27%    100.00% # Number of insts issued each cycle
system.switch_cpus.iq.issued_per_cycle::overflows            0      0.00%    100.00% # Number of insts issued each cycle
system.switch_cpus.iq.issued_per_cycle::min_value            0                       # Number of insts issued each cycle
system.switch_cpus.iq.issued_per_cycle::max_value            8                       # Number of insts issued each cycle
system.switch_cpus.iq.issued_per_cycle::total     15606510                       # Number of insts issued each cycle
system.switch_cpus.iq.rate                   1.418570                       # Inst issue rate
system.switch_cpus.iq.vec_alu_accesses              0                       # Number of vector alu accesses
system.switch_cpus.iq.vec_inst_queue_reads            0                       # Number of vector instruction queue reads
system.switch_cpus.iq.vec_inst_queue_wakeup_accesses            0                       # Number of vector instruction queue wakeup accesses
system.switch_cpus.iq.vec_inst_queue_writes            0                       # Number of vector instruction queue writes
system.switch_cpus.memDep0.conflictingLoads       277079                       # Number of conflicting loads.
system.switch_cpus.memDep0.conflictingStores        88633                       # Number of conflicting stores.
system.switch_cpus.memDep0.insertedLoads      4341956                       # Number of loads inserted to the mem dependence unit.
system.switch_cpus.memDep0.insertedStores      2062863                       # Number of stores inserted to the mem dependence unit.
system.switch_cpus.misc_regfile_reads         9303273                       # number of misc regfile reads
system.switch_cpus.misc_regfile_writes            657                       # number of misc regfile writes
system.switch_cpus.numCycles                 15689746                       # number of cpu cycles simulated
system.switch_cpus.numWorkItemsCompleted            0                       # number of work items this cpu completed
system.switch_cpus.numWorkItemsStarted              0                       # number of work items this cpu started
system.switch_cpus.timesIdled                     763                       # Number of times that the entire CPU went into an idle state and unscheduled itself
system.tol2bus.snoop_filter.hit_multi_requests           29                       # Number of requests hitting in the snoop filter with multiple (>1) holders of the requested data.
system.tol2bus.snoop_filter.hit_multi_snoops            0                       # Number of snoops hitting in the snoop filter with multiple (>1) holders of the requested data.
system.tol2bus.snoop_filter.hit_single_requests        45091                       # Number of requests hitting in the snoop filter with a single holder of the requested data.
system.tol2bus.snoop_filter.hit_single_snoops         1357                       # Number of snoops hitting in the snoop filter with a single holder of the requested data.
system.tol2bus.snoop_filter.tot_requests        90520                       # Total number of requests made to the snoop filter.
system.tol2bus.snoop_filter.tot_snoops           1357                       # Total number of snoops made to the snoop filter.
system.clk_domain.clock                          1000                       # Clock period in ticks
system.cpu.branchPred.lookups                       0                       # Number of BP lookups
system.cpu.branchPred.condPredicted                 0                       # Number of conditional branches predicted
system.cpu.branchPred.condIncorrect                 0                       # Number of conditional branches incorrect
system.cpu.branchPred.BTBLookups                    0                       # Number of BTB lookups
system.cpu.branchPred.BTBHits                       0                       # Number of BTB hits
system.cpu.branchPred.BTBHitPct                   nan                       # BTB Hit Percentage
system.cpu.branchPred.RASUsed                       0                       # Number of times the RAS was used to get a target.
system.cpu.branchPred.RASIncorrect                  0                       # Number of incorrect RAS predictions.
system.cpu.branchPred.indirectLookups               0                       # Number of indirect predictor lookups.
system.cpu.branchPred.indirectHits                  0                       # Number of indirect target hits.
system.cpu.branchPred.indirectMisses                0                       # Number of indirect misses.
system.cpu.branchPred.indirectMispredicted            0                       # Number of mispredicted indirect branches.
system.cpu.dcache.demand_hits::.switch_cpus.data      4445858                       # number of demand (read+write) hits
system.cpu.dcache.demand_hits::total          4445858                       # number of demand (read+write) hits
system.cpu.dcache.overall_hits::.switch_cpus.data      4445858                       # number of overall hits
system.cpu.dcache.overall_hits::total         4445858                       # number of overall hits
system.cpu.dcache.demand_misses::.switch_cpus.data        63808                       # number of demand (read+write) misses
system.cpu.dcache.demand_misses::total          63808                       # number of demand (read+write) misses
system.cpu.dcache.overall_misses::.switch_cpus.data        63808                       # number of overall misses
system.cpu.dcache.overall_misses::total         63808                       # number of overall misses
system.cpu.dcache.demand_miss_latency::.switch_cpus.data   4423672998                       # number of demand (read+write) miss cycles
system.cpu.dcache.demand_miss_latency::total   4423672998                       # number of demand (read+write) miss cycles
system.cpu.dcache.overall_miss_latency::.switch_cpus.data   4423672998                       # number of overall miss cycles
system.cpu.dcache.overall_miss_latency::total   4423672998                       # number of overall miss cycles
system.cpu.dcache.demand_accesses::.switch_cpus.data      4509666                       # number of demand (read+write) accesses
system.cpu.dcache.demand_accesses::total      4509666                       # number of demand (read+write) accesses
system.cpu.dcache.overall_accesses::.switch_cpus.data      4509666                       # number of overall (read+write) accesses
system.cpu.dcache.overall_accesses::total      4509666                       # number of overall (read+write) accesses
system.cpu.dcache.demand_miss_rate::.switch_cpus.data     0.014149                       # miss rate for demand accesses
system.cpu.dcache.demand_miss_rate::total     0.014149                       # miss rate for demand accesses
system.cpu.dcache.overall_miss_rate::.switch_cpus.data     0.014149                       # miss rate for overall accesses
system.cpu.dcache.overall_miss_rate::total     0.014149                       # miss rate for overall accesses
system.cpu.dcache.demand_avg_miss_latency::.switch_cpus.data 69327.874216                       # average overall miss latency
system.cpu.dcache.demand_avg_miss_latency::total 69327.874216                       # average overall miss latency
system.cpu.dcache.overall_avg_miss_latency::.switch_cpus.data 69327.874216                       # average overall miss latency
system.cpu.dcache.overall_avg_miss_latency::total 69327.874216                       # average overall miss latency
system.cpu.dcache.blocked_cycles::no_mshrs        17756                       # number of cycles access was blocked
system.cpu.dcache.blocked_cycles::no_targets           49                       # number of cycles access was blocked
system.cpu.dcache.blocked::no_mshrs               298                       # number of cycles access was blocked
system.cpu.dcache.blocked::no_targets               4                       # number of cycles access was blocked
system.cpu.dcache.avg_blocked_cycles::no_mshrs    59.583893                       # average number of cycles each access was blocked
system.cpu.dcache.avg_blocked_cycles::no_targets    12.250000                       # average number of cycles each access was blocked
system.cpu.dcache.writebacks::.writebacks        35211                       # number of writebacks
system.cpu.dcache.writebacks::total             35211                       # number of writebacks
system.cpu.dcache.demand_mshr_hits::.switch_cpus.data        19651                       # number of demand (read+write) MSHR hits
system.cpu.dcache.demand_mshr_hits::total        19651                       # number of demand (read+write) MSHR hits
system.cpu.dcache.overall_mshr_hits::.switch_cpus.data        19651                       # number of overall MSHR hits
system.cpu.dcache.overall_mshr_hits::total        19651                       # number of overall MSHR hits
system.cpu.dcache.demand_mshr_misses::.switch_cpus.data        44157                       # number of demand (read+write) MSHR misses
system.cpu.dcache.demand_mshr_misses::total        44157                       # number of demand (read+write) MSHR misses
system.cpu.dcache.overall_mshr_misses::.switch_cpus.data        44157                       # number of overall MSHR misses
system.cpu.dcache.overall_mshr_misses::total        44157                       # number of overall MSHR misses
system.cpu.dcache.demand_mshr_miss_latency::.switch_cpus.data   3222459998                       # number of demand (read+write) MSHR miss cycles
system.cpu.dcache.demand_mshr_miss_latency::total   3222459998                       # number of demand (read+write) MSHR miss cycles
system.cpu.dcache.overall_mshr_miss_latency::.switch_cpus.data   3222459998                       # number of overall MSHR miss cycles
system.cpu.dcache.overall_mshr_miss_latency::total   3222459998                       # number of overall MSHR miss cycles
system.cpu.dcache.demand_mshr_miss_rate::.switch_cpus.data     0.009792                       # mshr miss rate for demand accesses
system.cpu.dcache.demand_mshr_miss_rate::total     0.009792                       # mshr miss rate for demand accesses
system.cpu.dcache.overall_mshr_miss_rate::.switch_cpus.data     0.009792                       # mshr miss rate for overall accesses
system.cpu.dcache.overall_mshr_miss_rate::total     0.009792                       # mshr miss rate for overall accesses
system.cpu.dcache.demand_avg_mshr_miss_latency::.switch_cpus.data 72977.330842                       # average overall mshr miss latency
system.cpu.dcache.demand_avg_mshr_miss_latency::total 72977.330842                       # average overall mshr miss latency
system.cpu.dcache.overall_avg_mshr_miss_latency::.switch_cpus.data 72977.330842                       # average overall mshr miss latency
system.cpu.dcache.overall_avg_mshr_miss_latency::total 72977.330842                       # average overall mshr miss latency
system.cpu.dcache.replacements                  44155                       # number of replacements
system.cpu.dcache.ReadReq_hits::.switch_cpus.data      2987374                       # number of ReadReq hits
system.cpu.dcache.ReadReq_hits::total         2987374                       # number of ReadReq hits
system.cpu.dcache.ReadReq_misses::.switch_cpus.data        28972                       # number of ReadReq misses
system.cpu.dcache.ReadReq_misses::total         28972                       # number of ReadReq misses
system.cpu.dcache.ReadReq_miss_latency::.switch_cpus.data   1605866500                       # number of ReadReq miss cycles
system.cpu.dcache.ReadReq_miss_latency::total   1605866500                       # number of ReadReq miss cycles
system.cpu.dcache.ReadReq_accesses::.switch_cpus.data      3016346                       # number of ReadReq accesses(hits+misses)
system.cpu.dcache.ReadReq_accesses::total      3016346                       # number of ReadReq accesses(hits+misses)
system.cpu.dcache.ReadReq_miss_rate::.switch_cpus.data     0.009605                       # miss rate for ReadReq accesses
system.cpu.dcache.ReadReq_miss_rate::total     0.009605                       # miss rate for ReadReq accesses
system.cpu.dcache.ReadReq_avg_miss_latency::.switch_cpus.data 55428.223802                       # average ReadReq miss latency
system.cpu.dcache.ReadReq_avg_miss_latency::total 55428.223802                       # average ReadReq miss latency
system.cpu.dcache.ReadReq_mshr_hits::.switch_cpus.data        19649                       # number of ReadReq MSHR hits
system.cpu.dcache.ReadReq_mshr_hits::total        19649                       # number of ReadReq MSHR hits
system.cpu.dcache.ReadReq_mshr_misses::.switch_cpus.data         9323                       # number of ReadReq MSHR misses
system.cpu.dcache.ReadReq_mshr_misses::total         9323                       # number of ReadReq MSHR misses
system.cpu.dcache.ReadReq_mshr_miss_latency::.switch_cpus.data    439566000                       # number of ReadReq MSHR miss cycles
system.cpu.dcache.ReadReq_mshr_miss_latency::total    439566000                       # number of ReadReq MSHR miss cycles
system.cpu.dcache.ReadReq_mshr_miss_rate::.switch_cpus.data     0.003091                       # mshr miss rate for ReadReq accesses
system.cpu.dcache.ReadReq_mshr_miss_rate::total     0.003091                       # mshr miss rate for ReadReq accesses
system.cpu.dcache.ReadReq_avg_mshr_miss_latency::.switch_cpus.data 47148.557331                       # average ReadReq mshr miss latency
system.cpu.dcache.ReadReq_avg_mshr_miss_latency::total 47148.557331                       # average ReadReq mshr miss latency
system.cpu.dcache.WriteReq_hits::.switch_cpus.data      1458484                       # number of WriteReq hits
system.cpu.dcache.WriteReq_hits::total        1458484                       # number of WriteReq hits
system.cpu.dcache.WriteReq_misses::.switch_cpus.data        34836                       # number of WriteReq misses
system.cpu.dcache.WriteReq_misses::total        34836                       # number of WriteReq misses
system.cpu.dcache.WriteReq_miss_latency::.switch_cpus.data   2817806498                       # number of WriteReq miss cycles
system.cpu.dcache.WriteReq_miss_latency::total   2817806498                       # number of WriteReq miss cycles
system.cpu.dcache.WriteReq_accesses::.switch_cpus.data      1493320                       # number of WriteReq accesses(hits+misses)
system.cpu.dcache.WriteReq_accesses::total      1493320                       # number of WriteReq accesses(hits+misses)
system.cpu.dcache.WriteReq_miss_rate::.switch_cpus.data     0.023328                       # miss rate for WriteReq accesses
system.cpu.dcache.WriteReq_miss_rate::total     0.023328                       # miss rate for WriteReq accesses
system.cpu.dcache.WriteReq_avg_miss_latency::.switch_cpus.data 80887.774084                       # average WriteReq miss latency
system.cpu.dcache.WriteReq_avg_miss_latency::total 80887.774084                       # average WriteReq miss latency
system.cpu.dcache.WriteReq_mshr_hits::.switch_cpus.data            2                       # number of WriteReq MSHR hits
system.cpu.dcache.WriteReq_mshr_hits::total            2                       # number of WriteReq MSHR hits
system.cpu.dcache.WriteReq_mshr_misses::.switch_cpus.data        34834                       # number of WriteReq MSHR misses
system.cpu.dcache.WriteReq_mshr_misses::total        34834                       # number of WriteReq MSHR misses
system.cpu.dcache.WriteReq_mshr_miss_latency::.switch_cpus.data   2782893998                       # number of WriteReq MSHR miss cycles
system.cpu.dcache.WriteReq_mshr_miss_latency::total   2782893998                       # number of WriteReq MSHR miss cycles
system.cpu.dcache.WriteReq_mshr_miss_rate::.switch_cpus.data     0.023327                       # mshr miss rate for WriteReq accesses
system.cpu.dcache.WriteReq_mshr_miss_rate::total     0.023327                       # mshr miss rate for WriteReq accesses
system.cpu.dcache.WriteReq_avg_mshr_miss_latency::.switch_cpus.data 79890.164724                       # average WriteReq mshr miss latency
system.cpu.dcache.WriteReq_avg_mshr_miss_latency::total 79890.164724                       # average WriteReq mshr miss latency
system.cpu.dcache.power_state.pwrStateResidencyTicks::UNDEFINED   8894416500                       # Cumulative time (in ticks) in various power states
system.cpu.dcache.tags.tagsinuse                 1024                       # Cycle average of tags in use
system.cpu.dcache.tags.total_refs             4697286                       # Total number of references to valid blocks.
system.cpu.dcache.tags.sampled_refs             45179                       # Sample count of references to valid blocks.
system.cpu.dcache.tags.avg_refs            103.970562                       # Average number of references to valid blocks.
system.cpu.dcache.tags.warmup_cycle                 0                       # Cycle when the warmup percentage was hit.
system.cpu.dcache.tags.occ_blocks::.cpu.data    18.255637                       # Average occupied blocks per requestor
system.cpu.dcache.tags.occ_blocks::.switch_cpus.data  1005.744363                       # Average occupied blocks per requestor
system.cpu.dcache.tags.occ_percent::.cpu.data     0.017828                       # Average percentage of cache occupancy
system.cpu.dcache.tags.occ_percent::.switch_cpus.data     0.982172                       # Average percentage of cache occupancy
system.cpu.dcache.tags.occ_percent::total            1                       # Average percentage of cache occupancy
system.cpu.dcache.tags.occ_task_id_blocks::1024         1024                       # Occupied blocks per task id
system.cpu.dcache.tags.age_task_id_blocks_1024::0            1                       # Occupied blocks per task id
system.cpu.dcache.tags.age_task_id_blocks_1024::1           14                       # Occupied blocks per task id
system.cpu.dcache.tags.age_task_id_blocks_1024::2           89                       # Occupied blocks per task id
system.cpu.dcache.tags.age_task_id_blocks_1024::3          920                       # Occupied blocks per task id
system.cpu.dcache.tags.occ_task_id_percent::1024            1                       # Percentage of cache occupancy per task id
system.cpu.dcache.tags.tag_accesses           9063487                       # Number of tag accesses
system.cpu.dcache.tags.data_accesses          9063487                       # Number of data accesses
system.cpu.dcache.tags.power_state.pwrStateResidencyTicks::UNDEFINED   8894416500                       # Cumulative time (in ticks) in various power states
system.cpu.dtb.rdAccesses                           0                       # TLB accesses on read requests
system.cpu.dtb.wrAccesses                           0                       # TLB accesses on write requests
system.cpu.dtb.rdMisses                             0                       # TLB misses on read requests
system.cpu.dtb.wrMisses                             0                       # TLB misses on write requests
system.cpu.dtb.walker.power_state.pwrStateResidencyTicks::UNDEFINED   8894416500                       # Cumulative time (in ticks) in various power states
system.cpu.dtb_walker_cache.blocked_cycles::no_mshrs            0                       # number of cycles access was blocked
system.cpu.dtb_walker_cache.blocked_cycles::no_targets            0                       # number of cycles access was blocked
system.cpu.dtb_walker_cache.blocked::no_mshrs            0                       # number of cycles access was blocked
system.cpu.dtb_walker_cache.blocked::no_targets            0                       # number of cycles access was blocked
system.cpu.dtb_walker_cache.avg_blocked_cycles::no_mshrs          nan                       # average number of cycles each access was blocked
system.cpu.dtb_walker_cache.avg_blocked_cycles::no_targets          nan                       # average number of cycles each access was blocked
system.cpu.dtb_walker_cache.replacements            0                       # number of replacements
system.cpu.dtb_walker_cache.power_state.pwrStateResidencyTicks::UNDEFINED   8894416500                       # Cumulative time (in ticks) in various power states
system.cpu.dtb_walker_cache.tags.tagsinuse            0                       # Cycle average of tags in use
system.cpu.dtb_walker_cache.tags.total_refs            0                       # Total number of references to valid blocks.
system.cpu.dtb_walker_cache.tags.sampled_refs            0                       # Sample count of references to valid blocks.
system.cpu.dtb_walker_cache.tags.avg_refs          nan                       # Average number of references to valid blocks.
system.cpu.dtb_walker_cache.tags.warmup_cycle            0                       # Cycle when the warmup percentage was hit.
system.cpu.dtb_walker_cache.tags.tag_accesses            0                       # Number of tag accesses
system.cpu.dtb_walker_cache.tags.data_accesses            0                       # Number of data accesses
system.cpu.dtb_walker_cache.tags.power_state.pwrStateResidencyTicks::UNDEFINED   8894416500                       # Cumulative time (in ticks) in various power states
system.cpu.icache.demand_hits::.switch_cpus.inst      2501129                       # number of demand (read+write) hits
system.cpu.icache.demand_hits::total          2501129                       # number of demand (read+write) hits
system.cpu.icache.overall_hits::.switch_cpus.inst      2501129                       # number of overall hits
system.cpu.icache.overall_hits::total         2501129                       # number of overall hits
system.cpu.icache.demand_misses::.switch_cpus.inst         1735                       # number of demand (read+write) misses
system.cpu.icache.demand_misses::total           1735                       # number of demand (read+write) misses
system.cpu.icache.overall_misses::.switch_cpus.inst         1735                       # number of overall misses
system.cpu.icache.overall_misses::total          1735                       # number of overall misses
system.cpu.icache.demand_miss_latency::.switch_cpus.inst    133150499                       # number of demand (read+write) miss cycles
system.cpu.icache.demand_miss_latency::total    133150499                       # number of demand (read+write) miss cycles
system.cpu.icache.overall_miss_latency::.switch_cpus.inst    133150499                       # number of overall miss cycles
system.cpu.icache.overall_miss_latency::total    133150499                       # number of overall miss cycles
system.cpu.icache.demand_accesses::.switch_cpus.inst      2502864                       # number of demand (read+write) accesses
system.cpu.icache.demand_accesses::total      2502864                       # number of demand (read+write) accesses
system.cpu.icache.overall_accesses::.switch_cpus.inst      2502864                       # number of overall (read+write) accesses
system.cpu.icache.overall_accesses::total      2502864                       # number of overall (read+write) accesses
system.cpu.icache.demand_miss_rate::.switch_cpus.inst     0.000693                       # miss rate for demand accesses
system.cpu.icache.demand_miss_rate::total     0.000693                       # miss rate for demand accesses
system.cpu.icache.overall_miss_rate::.switch_cpus.inst     0.000693                       # miss rate for overall accesses
system.cpu.icache.overall_miss_rate::total     0.000693                       # miss rate for overall accesses
system.cpu.icache.demand_avg_miss_latency::.switch_cpus.inst 76743.803458                       # average overall miss latency
system.cpu.icache.demand_avg_miss_latency::total 76743.803458                       # average overall miss latency
system.cpu.icache.overall_avg_miss_latency::.switch_cpus.inst 76743.803458                       # average overall miss latency
system.cpu.icache.overall_avg_miss_latency::total 76743.803458                       # average overall miss latency
system.cpu.icache.blocked_cycles::no_mshrs          537                       # number of cycles access was blocked
system.cpu.icache.blocked_cycles::no_targets          254                       # number of cycles access was blocked
system.cpu.icache.blocked::no_mshrs                10                       # number of cycles access was blocked
system.cpu.icache.blocked::no_targets               1                       # number of cycles access was blocked
system.cpu.icache.avg_blocked_cycles::no_mshrs    53.700000                       # average number of cycles each access was blocked
system.cpu.icache.avg_blocked_cycles::no_targets          254                       # average number of cycles each access was blocked
system.cpu.icache.writebacks::.writebacks          935                       # number of writebacks
system.cpu.icache.writebacks::total               935                       # number of writebacks
system.cpu.icache.demand_mshr_hits::.switch_cpus.inst          462                       # number of demand (read+write) MSHR hits
system.cpu.icache.demand_mshr_hits::total          462                       # number of demand (read+write) MSHR hits
system.cpu.icache.overall_mshr_hits::.switch_cpus.inst          462                       # number of overall MSHR hits
system.cpu.icache.overall_mshr_hits::total          462                       # number of overall MSHR hits
system.cpu.icache.demand_mshr_misses::.switch_cpus.inst         1273                       # number of demand (read+write) MSHR misses
system.cpu.icache.demand_mshr_misses::total         1273                       # number of demand (read+write) MSHR misses
system.cpu.icache.overall_mshr_misses::.switch_cpus.inst         1273                       # number of overall MSHR misses
system.cpu.icache.overall_mshr_misses::total         1273                       # number of overall MSHR misses
system.cpu.icache.demand_mshr_miss_latency::.switch_cpus.inst     99987000                       # number of demand (read+write) MSHR miss cycles
system.cpu.icache.demand_mshr_miss_latency::total     99987000                       # number of demand (read+write) MSHR miss cycles
system.cpu.icache.overall_mshr_miss_latency::.switch_cpus.inst     99987000                       # number of overall MSHR miss cycles
system.cpu.icache.overall_mshr_miss_latency::total     99987000                       # number of overall MSHR miss cycles
system.cpu.icache.demand_mshr_miss_rate::.switch_cpus.inst     0.000509                       # mshr miss rate for demand accesses
system.cpu.icache.demand_mshr_miss_rate::total     0.000509                       # mshr miss rate for demand accesses
system.cpu.icache.overall_mshr_miss_rate::.switch_cpus.inst     0.000509                       # mshr miss rate for overall accesses
system.cpu.icache.overall_mshr_miss_rate::total     0.000509                       # mshr miss rate for overall accesses
system.cpu.icache.demand_avg_mshr_miss_latency::.switch_cpus.inst 78544.383346                       # average overall mshr miss latency
system.cpu.icache.demand_avg_mshr_miss_latency::total 78544.383346                       # average overall mshr miss latency
system.cpu.icache.overall_avg_mshr_miss_latency::.switch_cpus.inst 78544.383346                       # average overall mshr miss latency
system.cpu.icache.overall_avg_mshr_miss_latency::total 78544.383346                       # average overall mshr miss latency
system.cpu.icache.replacements                    935                       # number of replacements
system.cpu.icache.ReadReq_hits::.switch_cpus.inst      2501129                       # number of ReadReq hits
system.cpu.icache.ReadReq_hits::total         2501129                       # number of ReadReq hits
system.cpu.icache.ReadReq_misses::.switch_cpus.inst         1735                       # number of ReadReq misses
system.cpu.icache.ReadReq_misses::total          1735                       # number of ReadReq misses
system.cpu.icache.ReadReq_miss_latency::.switch_cpus.inst    133150499                       # number of ReadReq miss cycles
system.cpu.icache.ReadReq_miss_latency::total    133150499                       # number of ReadReq miss cycles
system.cpu.icache.ReadReq_accesses::.switch_cpus.inst      2502864                       # number of ReadReq accesses(hits+misses)
system.cpu.icache.ReadReq_accesses::total      2502864                       # number of ReadReq accesses(hits+misses)
system.cpu.icache.ReadReq_miss_rate::.switch_cpus.inst     0.000693                       # miss rate for ReadReq accesses
system.cpu.icache.ReadReq_miss_rate::total     0.000693                       # miss rate for ReadReq accesses
system.cpu.icache.ReadReq_avg_miss_latency::.switch_cpus.inst 76743.803458                       # average ReadReq miss latency
system.cpu.icache.ReadReq_avg_miss_latency::total 76743.803458                       # average ReadReq miss latency
system.cpu.icache.ReadReq_mshr_hits::.switch_cpus.inst          462                       # number of ReadReq MSHR hits
system.cpu.icache.ReadReq_mshr_hits::total          462                       # number of ReadReq MSHR hits
system.cpu.icache.ReadReq_mshr_misses::.switch_cpus.inst         1273                       # number of ReadReq MSHR misses
system.cpu.icache.ReadReq_mshr_misses::total         1273                       # number of ReadReq MSHR misses
system.cpu.icache.ReadReq_mshr_miss_latency::.switch_cpus.inst     99987000                       # number of ReadReq MSHR miss cycles
system.cpu.icache.ReadReq_mshr_miss_latency::total     99987000                       # number of ReadReq MSHR miss cycles
system.cpu.icache.ReadReq_mshr_miss_rate::.switch_cpus.inst     0.000509                       # mshr miss rate for ReadReq accesses
system.cpu.icache.ReadReq_mshr_miss_rate::total     0.000509                       # mshr miss rate for ReadReq accesses
system.cpu.icache.ReadReq_avg_mshr_miss_latency::.switch_cpus.inst 78544.383346                       # average ReadReq mshr miss latency
system.cpu.icache.ReadReq_avg_mshr_miss_latency::total 78544.383346                       # average ReadReq mshr miss latency
system.cpu.icache.power_state.pwrStateResidencyTicks::UNDEFINED   8894416500                       # Cumulative time (in ticks) in various power states
system.cpu.icache.tags.tagsinuse           955.078495                       # Cycle average of tags in use
system.cpu.icache.tags.total_refs             3837691                       # Total number of references to valid blocks.
system.cpu.icache.tags.sampled_refs              1929                       # Sample count of references to valid blocks.
system.cpu.icache.tags.avg_refs           1989.471747                       # Average number of references to valid blocks.
system.cpu.icache.tags.warmup_cycle                 0                       # Cycle when the warmup percentage was hit.
system.cpu.icache.tags.occ_blocks::.cpu.inst   255.696662                       # Average occupied blocks per requestor
system.cpu.icache.tags.occ_blocks::.switch_cpus.inst   699.381833                       # Average occupied blocks per requestor
system.cpu.icache.tags.occ_percent::.cpu.inst     0.249704                       # Average percentage of cache occupancy
system.cpu.icache.tags.occ_percent::.switch_cpus.inst     0.682990                       # Average percentage of cache occupancy
system.cpu.icache.tags.occ_percent::total     0.932694                       # Average percentage of cache occupancy
system.cpu.icache.tags.occ_task_id_blocks::1024          987                       # Occupied blocks per task id
system.cpu.icache.tags.age_task_id_blocks_1024::3          987                       # Occupied blocks per task id
system.cpu.icache.tags.occ_task_id_percent::1024     0.963867                       # Percentage of cache occupancy per task id
system.cpu.icache.tags.tag_accesses           5007001                       # Number of tag accesses
system.cpu.icache.tags.data_accesses          5007001                       # Number of data accesses
system.cpu.icache.tags.power_state.pwrStateResidencyTicks::UNDEFINED   8894416500                       # Cumulative time (in ticks) in various power states
system.cpu.interrupts.clk_domain.clock           8000                       # Clock period in ticks
system.cpu.itb.rdAccesses                           0                       # TLB accesses on read requests
system.cpu.itb.wrAccesses                           0                       # TLB accesses on write requests
system.cpu.itb.rdMisses                             0                       # TLB misses on read requests
system.cpu.itb.wrMisses                             0                       # TLB misses on write requests
system.cpu.itb.walker.power_state.pwrStateResidencyTicks::UNDEFINED   8894416500                       # Cumulative time (in ticks) in various power states
system.cpu.itb_walker_cache.blocked_cycles::no_mshrs            0                       # number of cycles access was blocked
system.cpu.itb_walker_cache.blocked_cycles::no_targets            0                       # number of cycles access was blocked
system.cpu.itb_walker_cache.blocked::no_mshrs            0                       # number of cycles access was blocked
system.cpu.itb_walker_cache.blocked::no_targets            0                       # number of cycles access was blocked
system.cpu.itb_walker_cache.avg_blocked_cycles::no_mshrs          nan                       # average number of cycles each access was blocked
system.cpu.itb_walker_cache.avg_blocked_cycles::no_targets          nan                       # average number of cycles each access was blocked
system.cpu.itb_walker_cache.replacements            0                       # number of replacements
system.cpu.itb_walker_cache.power_state.pwrStateResidencyTicks::UNDEFINED   8894416500                       # Cumulative time (in ticks) in various power states
system.cpu.itb_walker_cache.tags.tagsinuse            0                       # Cycle average of tags in use
system.cpu.itb_walker_cache.tags.total_refs            0                       # Total number of references to valid blocks.
system.cpu.itb_walker_cache.tags.sampled_refs            0                       # Sample count of references to valid blocks.
system.cpu.itb_walker_cache.tags.avg_refs          nan                       # Average number of references to valid blocks.
system.cpu.itb_walker_cache.tags.warmup_cycle            0                       # Cycle when the warmup percentage was hit.
system.cpu.itb_walker_cache.tags.tag_accesses            0                       # Number of tag accesses
system.cpu.itb_walker_cache.tags.data_accesses            0                       # Number of data accesses
system.cpu.itb_walker_cache.tags.power_state.pwrStateResidencyTicks::UNDEFINED   8894416500                       # Cumulative time (in ticks) in various power states
system.cpu.power_state.pwrStateResidencyTicks::OFF   7844873000                       # Cumulative time (in ticks) in various power states
system.cpu.thread_0.numInsts                        0                       # Number of Instructions committed
system.cpu.thread_0.numOps                          0                       # Number of Ops committed
system.cpu.thread_0.numMemRefs                      0                       # Number of Memory References
system.cpu_clk_domain.clock                       500                       # Clock period in ticks
system.cpu_voltage_domain.voltage                   1                       # Voltage in Volts
system.l2.demand_hits::.switch_cpus.inst           99                       # number of demand (read+write) hits
system.l2.demand_hits::.switch_cpus.data         5157                       # number of demand (read+write) hits
system.l2.demand_hits::total                     5256                       # number of demand (read+write) hits
system.l2.overall_hits::.switch_cpus.inst           99                       # number of overall hits
system.l2.overall_hits::.switch_cpus.data         5157                       # number of overall hits
system.l2.overall_hits::total                    5256                       # number of overall hits
system.l2.demand_misses::.switch_cpus.inst         1166                       # number of demand (read+write) misses
system.l2.demand_misses::.switch_cpus.data        38998                       # number of demand (read+write) misses
system.l2.demand_misses::total                  40164                       # number of demand (read+write) misses
system.l2.overall_misses::.switch_cpus.inst         1166                       # number of overall misses
system.l2.overall_misses::.switch_cpus.data        38998                       # number of overall misses
system.l2.overall_misses::total                 40164                       # number of overall misses
system.l2.demand_miss_latency::.switch_cpus.inst     96965000                       # number of demand (read+write) miss cycles
system.l2.demand_miss_latency::.switch_cpus.data   3101564000                       # number of demand (read+write) miss cycles
system.l2.demand_miss_latency::total       3198529000                       # number of demand (read+write) miss cycles
system.l2.overall_miss_latency::.switch_cpus.inst     96965000                       # number of overall miss cycles
system.l2.overall_miss_latency::.switch_cpus.data   3101564000                       # number of overall miss cycles
system.l2.overall_miss_latency::total      3198529000                       # number of overall miss cycles
system.l2.demand_accesses::.switch_cpus.inst         1265                       # number of demand (read+write) accesses
system.l2.demand_accesses::.switch_cpus.data        44155                       # number of demand (read+write) accesses
system.l2.demand_accesses::total                45420                       # number of demand (read+write) accesses
system.l2.overall_accesses::.switch_cpus.inst         1265                       # number of overall (read+write) accesses
system.l2.overall_accesses::.switch_cpus.data        44155                       # number of overall (read+write) accesses
system.l2.overall_accesses::total               45420                       # number of overall (read+write) accesses
system.l2.demand_miss_rate::.switch_cpus.inst     0.921739                       # miss rate for demand accesses
system.l2.demand_miss_rate::.switch_cpus.data     0.883207                       # miss rate for demand accesses
system.l2.demand_miss_rate::total            0.884280                       # miss rate for demand accesses
system.l2.overall_miss_rate::.switch_cpus.inst     0.921739                       # miss rate for overall accesses
system.l2.overall_miss_rate::.switch_cpus.data     0.883207                       # miss rate for overall accesses
system.l2.overall_miss_rate::total           0.884280                       # miss rate for overall accesses
system.l2.demand_avg_miss_latency::.switch_cpus.inst 83160.377358                       # average overall miss latency
system.l2.demand_avg_miss_latency::.switch_cpus.data 79531.360583                       # average overall miss latency
system.l2.demand_avg_miss_latency::total 79636.714471                       # average overall miss latency
system.l2.overall_avg_miss_latency::.switch_cpus.inst 83160.377358                       # average overall miss latency
system.l2.overall_avg_miss_latency::.switch_cpus.data 79531.360583                       # average overall miss latency
system.l2.overall_avg_miss_latency::total 79636.714471                       # average overall miss latency
system.l2.blocked_cycles::no_mshrs                  0                       # number of cycles access was blocked
system.l2.blocked_cycles::no_targets                0                       # number of cycles access was blocked
system.l2.blocked::no_mshrs                         0                       # number of cycles access was blocked
system.l2.blocked::no_targets                       0                       # number of cycles access was blocked
system.l2.avg_blocked_cycles::no_mshrs            nan                       # average number of cycles each access was blocked
system.l2.avg_blocked_cycles::no_targets          nan                       # average number of cycles each access was blocked
system.l2.writebacks::.writebacks               28163                       # number of writebacks
system.l2.writebacks::total                     28163                       # number of writebacks
system.l2.demand_mshr_misses::.switch_cpus.inst         1166                       # number of demand (read+write) MSHR misses
system.l2.demand_mshr_misses::.switch_cpus.data        38998                       # number of demand (read+write) MSHR misses
system.l2.demand_mshr_misses::total             40164                       # number of demand (read+write) MSHR misses
system.l2.overall_mshr_misses::.switch_cpus.inst         1166                       # number of overall MSHR misses
system.l2.overall_mshr_misses::.switch_cpus.data        38998                       # number of overall MSHR misses
system.l2.overall_mshr_misses::total            40164                       # number of overall MSHR misses
system.l2.demand_mshr_miss_latency::.switch_cpus.inst     85305000                       # number of demand (read+write) MSHR miss cycles
system.l2.demand_mshr_miss_latency::.switch_cpus.data   2711584000                       # number of demand (read+write) MSHR miss cycles
system.l2.demand_mshr_miss_latency::total   2796889000                       # number of demand (read+write) MSHR miss cycles
system.l2.overall_mshr_miss_latency::.switch_cpus.inst     85305000                       # number of overall MSHR miss cycles
system.l2.overall_mshr_miss_latency::.switch_cpus.data   2711584000                       # number of overall MSHR miss cycles
system.l2.overall_mshr_miss_latency::total   2796889000                       # number of overall MSHR miss cycles
system.l2.demand_mshr_miss_rate::.switch_cpus.inst     0.921739                       # mshr miss rate for demand accesses
system.l2.demand_mshr_miss_rate::.switch_cpus.data     0.883207                       # mshr miss rate for demand accesses
system.l2.demand_mshr_miss_rate::total       0.884280                       # mshr miss rate for demand accesses
system.l2.overall_mshr_miss_rate::.switch_cpus.inst     0.921739                       # mshr miss rate for overall accesses
system.l2.overall_mshr_miss_rate::.switch_cpus.data     0.883207                       # mshr miss rate for overall accesses
system.l2.overall_mshr_miss_rate::total      0.884280                       # mshr miss rate for overall accesses
system.l2.demand_avg_mshr_miss_latency::.switch_cpus.inst 73160.377358                       # average overall mshr miss latency
system.l2.demand_avg_mshr_miss_latency::.switch_cpus.data 69531.360583                       # average overall mshr miss latency
system.l2.demand_avg_mshr_miss_latency::total 69636.714471                       # average overall mshr miss latency
system.l2.overall_avg_mshr_miss_latency::.switch_cpus.inst 73160.377358                       # average overall mshr miss latency
system.l2.overall_avg_mshr_miss_latency::.switch_cpus.data 69531.360583                       # average overall mshr miss latency
system.l2.overall_avg_mshr_miss_latency::total 69636.714471                       # average overall mshr miss latency
system.l2.replacements                          38700                       # number of replacements
system.l2.WritebackDirty_hits::.writebacks        35211                       # number of WritebackDirty hits
system.l2.WritebackDirty_hits::total            35211                       # number of WritebackDirty hits
system.l2.WritebackDirty_accesses::.writebacks        35211                       # number of WritebackDirty accesses(hits+misses)
system.l2.WritebackDirty_accesses::total        35211                       # number of WritebackDirty accesses(hits+misses)
system.l2.WritebackClean_hits::.writebacks          931                       # number of WritebackClean hits
system.l2.WritebackClean_hits::total              931                       # number of WritebackClean hits
system.l2.WritebackClean_accesses::.writebacks          931                       # number of WritebackClean accesses(hits+misses)
system.l2.WritebackClean_accesses::total          931                       # number of WritebackClean accesses(hits+misses)
system.l2.CleanEvict_mshr_misses::.writebacks            4                       # number of CleanEvict MSHR misses
system.l2.CleanEvict_mshr_misses::total             4                       # number of CleanEvict MSHR misses
system.l2.CleanEvict_mshr_miss_rate::.writebacks          inf                       # mshr miss rate for CleanEvict accesses
system.l2.CleanEvict_mshr_miss_rate::total          inf                       # mshr miss rate for CleanEvict accesses
system.l2.UpgradeReq_hits::.switch_cpus.data            2                       # number of UpgradeReq hits
system.l2.UpgradeReq_hits::total                    2                       # number of UpgradeReq hits
system.l2.UpgradeReq_accesses::.switch_cpus.data            2                       # number of UpgradeReq accesses(hits+misses)
system.l2.UpgradeReq_accesses::total                2                       # number of UpgradeReq accesses(hits+misses)
system.l2.ReadExReq_hits::.switch_cpus.data          357                       # number of ReadExReq hits
system.l2.ReadExReq_hits::total                   357                       # number of ReadExReq hits
system.l2.ReadExReq_misses::.switch_cpus.data        34475                       # number of ReadExReq misses
system.l2.ReadExReq_misses::total               34475                       # number of ReadExReq misses
system.l2.ReadExReq_miss_latency::.switch_cpus.data   2726815000                       # number of ReadExReq miss cycles
system.l2.ReadExReq_miss_latency::total    2726815000                       # number of ReadExReq miss cycles
system.l2.ReadExReq_accesses::.switch_cpus.data        34832                       # number of ReadExReq accesses(hits+misses)
system.l2.ReadExReq_accesses::total             34832                       # number of ReadExReq accesses(hits+misses)
system.l2.ReadExReq_miss_rate::.switch_cpus.data     0.989751                       # miss rate for ReadExReq accesses
system.l2.ReadExReq_miss_rate::total         0.989751                       # miss rate for ReadExReq accesses
system.l2.ReadExReq_avg_miss_latency::.switch_cpus.data 79095.431472                       # average ReadExReq miss latency
system.l2.ReadExReq_avg_miss_latency::total 79095.431472                       # average ReadExReq miss latency
system.l2.ReadExReq_mshr_misses::.switch_cpus.data        34475                       # number of ReadExReq MSHR misses
system.l2.ReadExReq_mshr_misses::total          34475                       # number of ReadExReq MSHR misses
system.l2.ReadExReq_mshr_miss_latency::.switch_cpus.data   2382065000                       # number of ReadExReq MSHR miss cycles
system.l2.ReadExReq_mshr_miss_latency::total   2382065000                       # number of ReadExReq MSHR miss cycles
system.l2.ReadExReq_mshr_miss_rate::.switch_cpus.data     0.989751                       # mshr miss rate for ReadExReq accesses
system.l2.ReadExReq_mshr_miss_rate::total     0.989751                       # mshr miss rate for ReadExReq accesses
system.l2.ReadExReq_avg_mshr_miss_latency::.switch_cpus.data 69095.431472                       # average ReadExReq mshr miss latency
system.l2.ReadExReq_avg_mshr_miss_latency::total 69095.431472                       # average ReadExReq mshr miss latency
system.l2.ReadCleanReq_hits::.switch_cpus.inst           99                       # number of ReadCleanReq hits
[...]
system.switch_cpus.commit.committedInstType_0::SimdCvt         7980      0.05%     71.32% # Class of committed instruction
system.switch_cpus.commit.committedInstType_0::SimdMisc       282738      1.79%     73.11% # Class of committed instruction
system.switch_cpus.commit.committedInstType_0::SimdMult            0      0.00%     73.11% # Class of committed instruction
system.switch_cpus.commit.committedInstType_0::SimdMultAcc            0      0.00%     73.11% # Class of committed instruction
system.switch_cpus.commit.committedInstType_0::SimdShift         1460      0.01%     73.12% # Class of committed instruction
system.switch_cpus.commit.committedInstType_0::SimdShiftAcc            0      0.00%     73.12% # Class of committed instruction
system.switch_cpus.commit.committedInstType_0::SimdDiv            0      0.00%     73.12% # Class of committed instruction
system.switch_cpus.commit.committedInstType_0::SimdSqrt            0      0.00%     73.12% # Class of committed instruction
system.switch_cpus.commit.committedInstType_0::SimdFloatAdd            0      0.00%     73.12% # Class of committed instruction
system.switch_cpus.commit.committedInstType_0::SimdFloatAlu            0      0.00%     73.12% # Class of committed instruction
system.switch_cpus.commit.committedInstType_0::SimdFloatCmp            0      0.00%     73.12% # Class of committed instruction
system.switch_cpus.commit.committedInstType_0::SimdFloatCvt         4134      0.03%     73.14% # Class of committed instruction
system.switch_cpus.commit.committedInstType_0::SimdFloatDiv            0      0.00%     73.14% # Class of committed instruction
system.switch_cpus.commit.committedInstType_0::SimdFloatMisc            0      0.00%     73.14% # Class of committed instruction
system.switch_cpus.commit.committedInstType_0::SimdFloatMult         2067      0.01%     73.16% # Class of committed instruction
system.switch_cpus.commit.committedInstType_0::SimdFloatMultAcc            0      0.00%     73.16% # Class of committed instruction
system.switch_cpus.commit.committedInstType_0::SimdFloatSqrt            0      0.00%     73.16% # Class of committed instruction
system.switch_cpus.commit.committedInstType_0::SimdReduceAdd            0      0.00%     73.16% # Class of committed instruction
system.switch_cpus.commit.committedInstType_0::SimdReduceAlu            0      0.00%     73.16% # Class of committed instruction
system.switch_cpus.commit.committedInstType_0::SimdReduceCmp            0      0.00%     73.16% # Class of committed instruction
system.switch_cpus.commit.committedInstType_0::SimdFloatReduceAdd            0      0.00%     73.16% # Class of committed instruction
system.switch_cpus.commit.committedInstType_0::SimdFloatReduceCmp            0      0.00%     73.16% # Class of committed instruction
system.switch_cpus.commit.committedInstType_0::SimdAes            0      0.00%     73.16% # Class of committed instruction
system.switch_cpus.commit.committedInstType_0::SimdAesMix            0      0.00%     73.16% # Class of committed instruction
system.switch_cpus.commit.committedInstType_0::SimdSha1Hash            0      0.00%     73.16% # Class of committed instruction
system.switch_cpus.commit.committedInstType_0::SimdSha1Hash2            0      0.00%     73.16% # Class of committed instruction
system.switch_cpus.commit.committedInstType_0::SimdSha256Hash            0      0.00%     73.16% # Class of committed instruction
system.switch_cpus.commit.committedInstType_0::SimdSha256Hash2            0      0.00%     73.16% # Class of committed instruction
system.switch_cpus.commit.committedInstType_0::SimdShaSigma2            0      0.00%     73.16% # Class of committed instruction
system.switch_cpus.commit.committedInstType_0::SimdShaSigma3            0      0.00%     73.16% # Class of committed instruction
system.switch_cpus.commit.committedInstType_0::SimdPredAlu            0      0.00%     73.16% # Class of committed instruction
system.switch_cpus.commit.committedInstType_0::MemRead      2726868     17.28%     90.43% # Class of committed instruction
system.switch_cpus.commit.committedInstType_0::MemWrite      1153087      7.31%     97.74% # Class of committed instruction
system.switch_cpus.commit.committedInstType_0::FloatMemRead        16727      0.11%     97.84% # Class of committed instruction
system.switch_cpus.commit.committedInstType_0::FloatMemWrite       340242      2.16%    100.00% # Class of committed instruction
system.switch_cpus.commit.committedInstType_0::IprAccess            0      0.00%    100.00% # Class of committed instruction
system.switch_cpus.commit.committedInstType_0::InstPrefetch            0      0.00%    100.00% # Class of committed instruction
system.switch_cpus.commit.committedInstType_0::total     15783158                       # Class of committed instruction
system.switch_cpus.commit.commitEligibleSamples       438051                       # number cycles where commit BW limit reached
system.switch_cpus.decode.idleCycles          2280696                       # Number of cycles decode is idle
system.switch_cpus.decode.blockedCycles       8889600                       # Number of cycles decode is blocked
system.switch_cpus.decode.runCycles           3209355                       # Number of cycles decode is running
system.switch_cpus.decode.unblockCycles        945244                       # Number of cycles decode is unblocking
system.switch_cpus.decode.squashCycles         281611                       # Number of cycles decode is squashing
system.switch_cpus.decode.branchResolved      1356553                       # Number of times decode resolved a  branch
system.switch_cpus.decode.branchMispred          1680                       # Number of times decode detected a branch misprediction
system.switch_cpus.decode.decodedInsts       28736853                       # Number of instructions handled by decode
system.switch_cpus.decode.squashedInsts          7309                       # Number of squashed instructions handled by decode
system.switch_cpus.dtb.rdAccesses             3805009                       # TLB accesses on read requests
system.switch_cpus.dtb.wrAccesses             1729469                       # TLB accesses on write requests
system.switch_cpus.dtb.rdMisses                  1630                       # TLB misses on read requests
system.switch_cpus.dtb.wrMisses                 16500                       # TLB misses on write requests
system.switch_cpus.dtb.walker.power_state.pwrStateResidencyTicks::UNDEFINED   8894416500                       # Cumulative time (in ticks) in various power states
system.switch_cpus.fetch.icacheStallCycles      2699262                       # Number of cycles fetch is stalled on an Icache miss
system.switch_cpus.fetch.insts               18341983                       # Number of instructions fetch has processed
system.switch_cpus.fetch.branches             3041675                       # Number of branches that fetch encountered
system.switch_cpus.fetch.predictedBranches      1654872                       # Number of branches that fetch has predicted taken
system.switch_cpus.fetch.cycles              12613596                       # Number of cycles fetch has run and was not squashing or blocked
system.switch_cpus.fetch.squashCycles          566382                       # Number of cycles fetch has spent squashing
system.switch_cpus.fetch.tlbCycles                109                       # Number of cycles fetch has spent waiting for tlb
system.switch_cpus.fetch.miscStallCycles         1292                       # Number of cycles fetch has spent waiting on interrupts,or bad addresses, or out of MSHRs
system.switch_cpus.fetch.pendingTrapStallCycles         8930                       # Number of stall cycles due to pending traps
system.switch_cpus.fetch.pendingQuiesceStallCycles           26                       # Number of stall cycles due to pending quiesce instructions
system.switch_cpus.fetch.icacheWaitRetryStallCycles          104                       # Number of stall cycles due to full MSHR
system.switch_cpus.fetch.cacheLines           2502866                       # Number of cache lines fetched
system.switch_cpus.fetch.icacheSquashes         82597                       # Number of outstanding Icache misses that were squashed
system.switch_cpus.fetch.nisnDist::samples     15606510                       # Number of instructions fetched each cycle (Total)
system.switch_cpus.fetch.nisnDist::mean      1.943312                       # Number of instructions fetched each cycle (Total)
system.switch_cpus.fetch.nisnDist::stdev     3.128450                       # Number of instructions fetched each cycle (Total)
system.switch_cpus.fetch.nisnDist::underflows            0      0.00%      0.00% # Number of instructions fetched each cycle (Total)
system.switch_cpus.fetch.nisnDist::0         10602397     67.94%     67.94% # Number of instructions fetched each cycle (Total)
system.switch_cpus.fetch.nisnDist::1           197999      1.27%     69.20% # Number of instructions fetched each cycle (Total)
system.switch_cpus.fetch.nisnDist::2           476178      3.05%     72.26% # Number of instructions fetched each cycle (Total)
system.switch_cpus.fetch.nisnDist::3           353638      2.27%     74.52% # Number of instructions fetched each cycle (Total)
system.switch_cpus.fetch.nisnDist::4           272038      1.74%     76.26% # Number of instructions fetched each cycle (Total)
system.switch_cpus.fetch.nisnDist::5           539605      3.46%     79.72% # Number of instructions fetched each cycle (Total)
system.switch_cpus.fetch.nisnDist::6           405397      2.60%     82.32% # Number of instructions fetched each cycle (Total)
system.switch_cpus.fetch.nisnDist::7           175575      1.13%     83.44% # Number of instructions fetched each cycle (Total)
system.switch_cpus.fetch.nisnDist::8          2583683     16.56%    100.00% # Number of instructions fetched each cycle (Total)
system.switch_cpus.fetch.nisnDist::overflows            0      0.00%    100.00% # Number of instructions fetched each cycle (Total)
system.switch_cpus.fetch.nisnDist::min_value            0                       # Number of instructions fetched each cycle (Total)
system.switch_cpus.fetch.nisnDist::max_value            8                       # Number of instructions fetched each cycle (Total)
system.switch_cpus.fetch.nisnDist::total     15606510                       # Number of instructions fetched each cycle (Total)
system.switch_cpus.fetch.branchRate          0.193864                       # Number of branch fetches per cycle
system.switch_cpus.fetch.rate                1.169043                       # Number of inst fetches per cycle
system.switch_cpus.itb.rdAccesses                   0                       # TLB accesses on read requests
system.switch_cpus.itb.wrAccesses             2504523                       # TLB accesses on write requests
system.switch_cpus.itb.rdMisses                     0                       # TLB misses on read requests
system.switch_cpus.itb.wrMisses                  1810                       # TLB misses on write requests
system.switch_cpus.itb.walker.power_state.pwrStateResidencyTicks::UNDEFINED   8894416500                       # Cumulative time (in ticks) in various power states
system.switch_cpus.lsq0.forwLoads              787956                       # Number of loads that had data forwarded from stores
system.switch_cpus.lsq0.squashedLoads         1598333                       # Number of loads squashed
system.switch_cpus.lsq0.ignoredResponses         1667                       # Number of memory responses ignored because the instruction is squashed
system.switch_cpus.lsq0.memOrderViolation          253                       # Number of memory ordering violations
system.switch_cpus.lsq0.squashedStores         569533                       # Number of stores squashed
system.switch_cpus.lsq0.rescheduledLoads            0                       # Number of loads that were rescheduled
system.switch_cpus.lsq0.blockedByCache            261                       # Number of times an access to memory failed due to the cache being blocked
system.switch_cpus.power_state.pwrStateResidencyTicks::OFF   8894416500                       # Cumulative time (in ticks) in various power states
system.switch_cpus.rename.squashCycles         281611                       # Number of cycles rename is squashing
system.switch_cpus.rename.idleCycles          2697224                       # Number of cycles rename is idle
system.switch_cpus.rename.blockCycles         3934124                       # Number of cycles rename is blocking
system.switch_cpus.rename.serializeStallCycles         9519                       # count of cycles rename stalledfor serializing inst
system.switch_cpus.rename.runCycles           3699870                       # Number of cycles rename is running
system.switch_cpus.rename.unblockCycles       4984158                       # Number of cycles rename is unblocking
system.switch_cpus.rename.renamedInsts       27614172                       # Number of instructions processed by rename
system.switch_cpus.rename.ROBFullEvents         10887                       # Number of times rename has blocked due to ROB full
system.switch_cpus.rename.IQFullEvents         816946                       # Number of times rename has blocked due to IQ full
system.switch_cpus.rename.LQFullEvents         806177                       # Number of times rename has blocked due to LQ full
system.switch_cpus.rename.SQFullEvents        3416906                       # Number of times rename has blocked due to SQ full
system.switch_cpus.rename.fullRegistersEvents           27                       # Number of times there has been no free registers
system.switch_cpus.rename.renamedOperands     34846302                       # Number of destination operands rename has renamed
system.switch_cpus.rename.lookups            74914785                       # Number of register rename lookups that rename has made
system.switch_cpus.rename.intLookups         44757955                       # Number of integer rename lookups
system.switch_cpus.rename.fpLookups           1443837                       # Number of floating rename lookups
system.switch_cpus.rename.committedMaps      21187688                       # Number of HB maps that are committed
system.switch_cpus.rename.undoneMaps         13658425                       # Number of HB maps that are undone due to squashing
system.switch_cpus.rename.serializing             681                       # count of serializing insts renamed
system.switch_cpus.rename.tempSerializing          672                       # count of temporary serializing insts renamed
system.switch_cpus.rename.skidInsts           3804285                       # count of insts added to the skid buffer
system.switch_cpus.rob.reads                 39250120                       # The number of ROB reads
system.switch_cpus.rob.writes                52291213                       # The number of ROB writes
system.switch_cpus.thread_0.numInsts         10000000                       # Number of Instructions committed
system.switch_cpus.thread_0.numOps           15783158                       # Number of Ops committed
system.switch_cpus.thread_0.numMemRefs              0                       # Number of Memory References
system.tol2bus.trans_dist::ReadResp             10596                       # Transaction distribution
system.tol2bus.trans_dist::WritebackDirty        63374                       # Transaction distribution
system.tol2bus.trans_dist::WritebackClean          935                       # Transaction distribution
system.tol2bus.trans_dist::CleanEvict           19481                       # Transaction distribution
system.tol2bus.trans_dist::UpgradeReq               2                       # Transaction distribution
system.tol2bus.trans_dist::UpgradeResp              2                       # Transaction distribution
system.tol2bus.trans_dist::ReadExReq            34832                       # Transaction distribution
system.tol2bus.trans_dist::ReadExResp           34832                       # Transaction distribution
system.tol2bus.trans_dist::ReadCleanReq          1273                       # Transaction distribution
system.tol2bus.trans_dist::ReadSharedReq         9323                       # Transaction distribution
system.tol2bus.pkt_count_system.cpu.icache.mem_side_port::system.l2.cpu_side_port         3473                       # Packet count per connected requestor and responder (bytes)
system.tol2bus.pkt_count_system.cpu.dcache.mem_side_port::system.l2.cpu_side_port       132469                       # Packet count per connected requestor and responder (bytes)
system.tol2bus.pkt_count::total                135942                       # Packet count per connected requestor and responder (bytes)
system.tol2bus.pkt_size_system.cpu.icache.mem_side_port::system.l2.cpu_side_port       140800                       # Cumulative packet size per connected requestor and responder (bytes)
system.tol2bus.pkt_size_system.cpu.dcache.mem_side_port::system.l2.cpu_side_port      5079424                       # Cumulative packet size per connected requestor and responder (bytes)
system.tol2bus.pkt_size::total                5220224                       # Cumulative packet size per connected requestor and responder (bytes)
system.tol2bus.snoops                           38708                       # Total snoops (count)
system.tol2bus.snoopTraffic                   1802944                       # Total snoop traffic (bytes)
system.tol2bus.snoop_fanout::samples            84130                       # Request fanout histogram
system.tol2bus.snoop_fanout::mean            0.016475                       # Request fanout histogram
system.tol2bus.snoop_fanout::stdev           0.127292                       # Request fanout histogram
system.tol2bus.snoop_fanout::underflows             0      0.00%      0.00% # Request fanout histogram
system.tol2bus.snoop_fanout::0                  82744     98.35%     98.35% # Request fanout histogram
system.tol2bus.snoop_fanout::1                   1386      1.65%    100.00% # Request fanout histogram
system.tol2bus.snoop_fanout::2                      0      0.00%    100.00% # Request fanout histogram
system.tol2bus.snoop_fanout::3                      0      0.00%    100.00% # Request fanout histogram
system.tol2bus.snoop_fanout::4                      0      0.00%    100.00% # Request fanout histogram
system.tol2bus.snoop_fanout::overflows              0      0.00%    100.00% # Request fanout histogram
system.tol2bus.snoop_fanout::min_value              0                       # Request fanout histogram
system.tol2bus.snoop_fanout::max_value              1                       # Request fanout histogram
system.tol2bus.snoop_fanout::total              84130                       # Request fanout histogram
system.tol2bus.power_state.pwrStateResidencyTicks::UNDEFINED   8894416500                       # Cumulative time (in ticks) in various power states
system.tol2bus.reqLayer0.occupancy           81406000                       # Layer occupancy (ticks)
system.tol2bus.reqLayer0.utilization              1.0                       # Layer utilization (%)
system.tol2bus.respLayer0.occupancy           1912993                       # Layer occupancy (ticks)
system.tol2bus.respLayer0.utilization             0.0                       # Layer utilization (%)
system.tol2bus.respLayer1.occupancy          66233999                       # Layer occupancy (ticks)
system.tol2bus.respLayer1.utilization             0.8                       # Layer utilization (%)
system.voltage_domain.voltage                       1                       # Voltage in Volts

---------- End Simulation Statistics   ----------
