
---------- Begin Simulation Statistics ----------
final_tick                                 7361526500                       # Number of ticks from beginning of simulation (restored from checkpoints and never reset)
host_inst_rate                                 131866                       # Simulator instruction rate (inst/s)
host_mem_usage                                8821028                       # Number of bytes of host memory used
host_op_rate                                   246684                       # Simulator op (including micro ops) rate (op/s)
host_seconds                                    83.42                       # Real time elapsed on the host
host_tick_rate                               75657072                       # Simulator tick rate (ticks/s)
sim_freq                                 1000000000000                       # Frequency of simulated ticks
sim_insts                                    11000001                       # Number of instructions simulated
sim_ops                                      20577856                       # Number of ops (including micro ops) simulated
sim_seconds                                  0.006311                       # Number of seconds simulated
sim_ticks                                  6311163500                       # Number of ticks simulated
system.cpu.committedInsts                           0                       # Number of instructions committed
system.cpu.committedOps                             0                       # Number of ops (including micro ops) committed
system.cpu.idle_fraction                            0                       # Percentage of idle cycles
system.cpu.not_idle_fraction                        1                       # Percentage of non-idle cycles
system.cpu.numCycles                                0                       # number of cpu cycles simulated
system.cpu.numWorkItemsCompleted                    0                       # number of work items this cpu completed
system.cpu.numWorkItemsStarted                      0                       # number of work items this cpu started
system.cpu.num_busy_cycles                          0                       # Number of busy cycles
system.cpu.num_conditional_control_insts            0                       # number of instructions that are conditional controls
system.cpu.num_fp_alu_accesses                      0                       # Number of float alu accesses
system.cpu.num_fp_insts                             0                       # number of float instructions
system.cpu.num_fp_register_reads                    0                       # number of times the floating registers were read
system.cpu.num_fp_register_writes                   0                       # number of times the floating registers were written
system.cpu.num_func_calls                           0                       # number of times a function call or return occured
system.cpu.num_idle_cycles                          0                       # Number of idle cycles
system.cpu.num_int_alu_accesses                     0                       # Number of integer alu accesses
system.cpu.num_int_insts                            0                       # number of integer instructions
system.cpu.num_int_register_reads                   0                       # number of times the integer registers were read
system.cpu.num_int_register_writes                  0                       # number of times the integer registers were written
system.cpu.num_load_insts                           0                       # Number of load instructions
system.cpu.num_mem_refs                             0                       # number of memory refs
system.cpu.num_store_insts                          0                       # Number of store instructions
system.cpu.num_vec_alu_accesses                     0                       # Number of vector alu accesses
system.cpu.num_vec_insts                            0                       # number of vector instructions
system.cpu.num_vec_register_reads                   0                       # number of times the vector registers were read
system.cpu.num_vec_register_writes                  0                       # number of times the vector registers were written
system.cpu.op_class::No_OpClass                     0                       # Class of executed instruction
system.cpu.op_class::IntAlu                         0                       # Class of executed instruction
system.cpu.op_class::IntMult                        0                       # Class of executed instruction
system.cpu.op_class::IntDiv                         0                       # Class of executed instruction
system.cpu.op_class::FloatAdd                       0                       # Class of executed instruction
system.cpu.op_class::FloatCmp                       0                       # Class of executed instruction
system.cpu.op_class::FloatCvt                       0                       # Class of executed instruction
system.cpu.op_class::FloatMult                      0                       # Class of executed instruction
system.cpu.op_class::FloatMultAcc                   0                       # Class of executed instruction
system.cpu.op_class::FloatDiv                       0                       # Class of executed instruction
system.cpu.op_class::FloatMisc                      0                       # Class of executed instruction
system.cpu.op_class::FloatSqrt                      0                       # Class of executed instruction
system.cpu.op_class::SimdAdd                        0                       # Class of executed instruction
system.cpu.op_class::SimdAddAcc                     0                       # Class of executed instruction
system.cpu.op_class::SimdAlu                        0                       # Class of executed instruction
system.cpu.op_class::SimdCmp                        0                       # Class of executed instruction
system.cpu.op_class::SimdCvt                        0                       # Class of executed instruction
system.cpu.op_class::SimdMisc                       0                       # Class of executed instruction
system.cpu.op_class::SimdMult                       0                       # Class of executed instruction
system.cpu.op_class::SimdMultAcc                    0                       # Class of executed instruction
system.cpu.op_class::SimdShift                      0                       # Class of executed instruction
system.cpu.op_class::SimdShiftAcc                   0                       # Class of executed instruction
system.cpu.op_class::SimdDiv                        0                       # Class of executed instruction
system.cpu.op_class::SimdSqrt                       0                       # Class of executed instruction
system.cpu.op_class::SimdFloatAdd                   0                       # Class of executed instruction
system.cpu.op_class::SimdFloatAlu                   0                       # Class of executed instruction
system.cpu.op_class::SimdFloatCmp                   0                       # Class of executed instruction
system.cpu.op_class::SimdFloatCvt                   0                       # Class of executed instruction
system.cpu.op_class::SimdFloatDiv                   0                       # Class of executed instruction
system.cpu.op_class::SimdFloatMisc                  0                       # Class of executed instruction
system.cpu.op_class::SimdFloatMult                  0                       # Class of executed instruction
system.cpu.op_class::SimdFloatMultAcc               0                       # Class of executed instruction
system.cpu.op_class::SimdFloatSqrt                  0                       # Class of executed instruction
system.cpu.op_class::SimdReduceAdd                  0                       # Class of executed instruction
system.cpu.op_class::SimdReduceAlu                  0                       # Class of executed instruction
system.cpu.op_class::SimdReduceCmp                  0                       # Class of executed instruction
system.cpu.op_class::SimdFloatReduceAdd             0                       # Class of executed instruction
system.cpu.op_class::SimdFloatReduceCmp             0                       # Class of executed instruction
system.cpu.op_class::SimdAes                        0                       # Class of executed instruction
system.cpu.op_class::SimdAesMix                     0                       # Class of executed instruction
system.cpu.op_class::SimdSha1Hash                   0                       # Class of executed instruction
system.cpu.op_class::SimdSha1Hash2                  0                       # Class of executed instruction
system.cpu.op_class::SimdSha256Hash                 0                       # Class of executed instruction
system.cpu.op_class::SimdSha256Hash2                0                       # Class of executed instruction
system.cpu.op_class::SimdShaSigma2                  0                       # Class of executed instruction
system.cpu.op_class::SimdShaSigma3                  0                       # Class of executed instruction
system.cpu.op_class::SimdPredAlu                    0                       # Class of executed instruction
system.cpu.op_class::MemRead                        0                       # Class of executed instruction
system.cpu.op_class::MemWrite                       0                       # Class of executed instruction
system.cpu.op_class::FloatMemRead                   0                       # Class of executed instruction
system.cpu.op_class::FloatMemWrite                  0                       # Class of executed instruction
system.cpu.op_class::IprAccess                      0                       # Class of executed instruction
system.cpu.op_class::InstPrefetch                   0                       # Class of executed instruction
system.cpu.op_class::total                          0                       # Class of executed instruction
system.cpu.workload.numSyscalls                    26                       # Number of system calls
system.membus.snoop_filter.hit_multi_requests            0                       # Number of requests hitting in the snoop filter with multiple (>1) holders of the requested data.
system.membus.snoop_filter.hit_multi_snoops            0                       # Number of snoops hitting in the snoop filter with multiple (>1) holders of the requested data.
system.membus.snoop_filter.hit_single_requests        33640                       # Number of requests hitting in the snoop filter with a single holder of the requested data.
system.membus.snoop_filter.hit_single_snoops            0                       # Number of snoops hitting in the snoop filter with a single holder of the requested data.
system.membus.snoop_filter.tot_requests         69248                       # Total number of requests made to the snoop filter.
system.membus.snoop_filter.tot_snoops               0                       # Total number of snoops made to the snoop filter.
system.switch_cpus.cc_regfile_reads          12422388                       # number of cc regfile reads
system.switch_cpus.cc_regfile_writes          7807915                       # number of cc regfile writes
system.switch_cpus.committedInsts            10000000                       # Number of Instructions Simulated
system.switch_cpus.committedOps              18817440                       # Number of Ops (including micro ops) Simulated
system.switch_cpus.cpi                       1.262233                       # CPI: Cycles Per Instruction
system.switch_cpus.cpi_total                 1.262233                       # CPI: Total CPI of All Threads
system.switch_cpus.fp_regfile_reads            229325                       # number of floating regfile reads
system.switch_cpus.fp_regfile_writes           124957                       # number of floating regfile writes
system.switch_cpus.idleCycles                  512560                       # Total number of cycles that the CPU has spent unscheduled due to idling
system.switch_cpus.iew.branchMispredicts       323440                       # Number of branch mispredicts detected at execute
system.switch_cpus.iew.exec_branches          2534486                       # Number of branches executed
system.switch_cpus.iew.exec_nop                     0                       # number of nop insts executed
system.switch_cpus.iew.exec_rate             1.927804                       # Inst execution rate
system.switch_cpus.iew.exec_refs              4959980                       # number of memory reference insts executed
system.switch_cpus.iew.exec_stores            1452746                       # Number of stores executed
system.switch_cpus.iew.exec_swp                     0                       # number of swp insts executed
system.switch_cpus.iew.iewBlockCycles         1742346                       # Number of cycles IEW is blocking
system.switch_cpus.iew.iewDispLoadInsts       4019850                       # Number of dispatched load instructions
system.switch_cpus.iew.iewDispNonSpecInsts         1258                       # Number of dispatched non-speculative instructions
system.switch_cpus.iew.iewDispSquashedInsts        23840                       # Number of squashed instructions skipped by dispatch
system.switch_cpus.iew.iewDispStoreInsts      1674519                       # Number of dispatched store instructions
system.switch_cpus.iew.iewDispatchedInsts     28100253                       # Number of instructions dispatched to IQ
system.switch_cpus.iew.iewExecLoadInsts       3507234                       # Number of load instructions executed
system.switch_cpus.iew.iewExecSquashedInsts       544336                       # Number of squashed instructions skipped in execute
system.switch_cpus.iew.iewExecutedInsts      24333370                       # Number of executed instructions
system.switch_cpus.iew.iewIQFullEvents          10661                       # Number of times the IQ has become full, causing a stall
system.switch_cpus.iew.iewIdleCycles                0                       # Number of cycles IEW is idle
system.switch_cpus.iew.iewLSQFullEvents        177896                       # Number of times the LSQ has become full, causing a stall
system.switch_cpus.iew.iewSquashCycles         256388                       # Number of cycles IEW is squashing
system.switch_cpus.iew.iewUnblockCycles        192967                       # Number of cycles IEW is unblocking
system.switch_cpus.iew.memOrderViolationEvents          678                       # Number of memory order violations
system.switch_cpus.iew.predictedNotTakenIncorrect       172243                       # Number of branches that were predicted not taken incorrectly
system.switch_cpus.iew.predictedTakenIncorrect       151197                       # Number of branches that were predicted taken incorrectly
system.switch_cpus.iew.wb_consumers          28776089                       # num instructions consuming a value
system.switch_cpus.iew.wb_count              24005726                       # cumulative count of insts written-back
system.switch_cpus.iew.wb_fanout             0.603535                       # average fanout of values written-back
system.switch_cpus.iew.wb_producers          17367379                       # num instructions producing a value
system.switch_cpus.iew.wb_rate               1.901846                       # insts written-back per cycle
system.switch_cpus.iew.wb_sent               24149195                       # cumulative count of insts sent to commit
system.switch_cpus.int_regfile_reads         36585835                       # number of integer regfile reads
system.switch_cpus.int_regfile_writes        20039510                       # number of integer regfile writes
system.switch_cpus.ipc                       0.792247                       # IPC: Instructions Per Cycle
system.switch_cpus.ipc_total                 0.792247                       # IPC: Total IPC of All Threads
system.switch_cpus.iq.FU_type_0::No_OpClass       437206      1.76%      1.76% # Type of FU issued
system.switch_cpus.iq.FU_type_0::IntAlu      18955499     76.19%     77.95% # Type of FU issued
system.switch_cpus.iq.FU_type_0::IntMult        69785      0.28%     78.23% # Type of FU issued
system.switch_cpus.iq.FU_type_0::IntDiv        166488      0.67%     78.90% # Type of FU issued
system.switch_cpus.iq.FU_type_0::FloatAdd        12055      0.05%     78.95% # Type of FU issued
system.switch_cpus.iq.FU_type_0::FloatCmp            0      0.00%     78.95% # Type of FU issued
system.switch_cpus.iq.FU_type_0::FloatCvt         1144      0.00%     78.95% # Type of FU issued
system.switch_cpus.iq.FU_type_0::FloatMult            2      0.00%     78.95% # Type of FU issued
system.switch_cpus.iq.FU_type_0::FloatMultAcc            0      0.00%     78.95% # Type of FU issued
system.switch_cpus.iq.FU_type_0::FloatDiv            0      0.00%     78.95% # Type of FU issued
system.switch_cpus.iq.FU_type_0::FloatMisc            0      0.00%     78.95% # Type of FU issued
system.switch_cpus.iq.FU_type_0::FloatSqrt            0      0.00%     78.95% # Type of FU issued
system.switch_cpus.iq.FU_type_0::SimdAdd         5032      0.02%     78.98% # Type of FU issued
system.switch_cpus.iq.FU_type_0::SimdAddAcc            0      0.00%     78.98% # Type of FU issued
system.switch_cpus.iq.FU_type_0::SimdAlu        30555      0.12%     79.10% # Type of FU issued
system.switch_cpus.iq.FU_type_0::SimdCmp           78      0.00%     79.10% # Type of FU issued
system.switch_cpus.iq.FU_type_0::SimdCvt        13657      0.05%     79.15% # Type of FU issued
system.switch_cpus.iq.FU_type_0::SimdMisc        19039      0.08%     79.23% # Type of FU issued
system.switch_cpus.iq.FU_type_0::SimdMult            0      0.00%     79.23% # Type of FU issued
system.switch_cpus.iq.FU_type_0::SimdMultAcc            0      0.00%     79.23% # Type of FU issued
system.switch_cpus.iq.FU_type_0::SimdShift         3700      0.01%     79.24% # Type of FU issued
system.switch_cpus.iq.FU_type_0::SimdShiftAcc            0      0.00%     79.24% # Type of FU issued
system.switch_cpus.iq.FU_type_0::SimdDiv            0      0.00%     79.24% # Type of FU issued
system.switch_cpus.iq.FU_type_0::SimdSqrt            0      0.00%     79.24% # Type of FU issued
system.switch_cpus.iq.FU_type_0::SimdFloatAdd           19      0.00%     79.24% # Type of FU issued
system.switch_cpus.iq.FU_type_0::SimdFloatAlu            0      0.00%     79.24% # Type of FU issued
system.switch_cpus.iq.FU_type_0::SimdFloatCmp            0      0.00%     79.24% # Type of FU issued
system.switch_cpus.iq.FU_type_0::SimdFloatCvt          566      0.00%     79.25% # Type of FU issued
system.switch_cpus.iq.FU_type_0::SimdFloatDiv            1      0.00%     79.25% # Type of FU issued
system.switch_cpus.iq.FU_type_0::SimdFloatMisc            0      0.00%     79.25% # Type of FU issued
system.switch_cpus.iq.FU_type_0::SimdFloatMult          262      0.00%     79.25% # Type of FU issued
system.switch_cpus.iq.FU_type_0::SimdFloatMultAcc            0      0.00%     79.25% # Type of FU issued
system.switch_cpus.iq.FU_type_0::SimdFloatSqrt            1      0.00%     79.25% # Type of FU issued
system.switch_cpus.iq.FU_type_0::SimdReduceAdd            0      0.00%     79.25% # Type of FU issued
system.switch_cpus.iq.FU_type_0::SimdReduceAlu            0      0.00%     79.25% # Type of FU issued
system.switch_cpus.iq.FU_type_0::SimdReduceCmp            0      0.00%     79.25% # Type of FU issued
system.switch_cpus.iq.FU_type_0::SimdFloatReduceAdd            0      0.00%     79.25% # Type of FU issued
system.switch_cpus.iq.FU_type_0::SimdFloatReduceCmp            0      0.00%     79.25% # Type of FU issued
system.switch_cpus.iq.FU_type_0::SimdAes            0      0.00%     79.25% # Type of FU issued
system.switch_cpus.iq.FU_type_0::SimdAesMix            0      0.00%     79.25% # Type of FU issued
system.switch_cpus.iq.FU_type_0::SimdSha1Hash            0      0.00%     79.25% # Type of FU issued
system.switch_cpus.iq.FU_type_0::SimdSha1Hash2            0      0.00%     79.25% # Type of FU issued
system.switch_cpus.iq.FU_type_0::SimdSha256Hash            0      0.00%     79.25% # Type of FU issued
system.switch_cpus.iq.FU_type_0::SimdSha256Hash2            0      0.00%     79.25% # Type of FU issued
system.switch_cpus.iq.FU_type_0::SimdShaSigma2            0      0.00%     79.25% # Type of FU issued
system.switch_cpus.iq.FU_type_0::SimdShaSigma3            0      0.00%     79.25% # Type of FU issued
system.switch_cpus.iq.FU_type_0::SimdPredAlu            0      0.00%     79.25% # Type of FU issued
system.switch_cpus.iq.FU_type_0::MemRead      3599024     14.47%     93.71% # Type of FU issued
system.switch_cpus.iq.FU_type_0::MemWrite      1432421      5.76%     99.47% # Type of FU issued
system.switch_cpus.iq.FU_type_0::FloatMemRead        53886      0.22%     99.69% # Type of FU issued
system.switch_cpus.iq.FU_type_0::FloatMemWrite        77287      0.31%    100.00% # Type of FU issued
system.switch_cpus.iq.FU_type_0::IprAccess            0      0.00%    100.00% # Type of FU issued
system.switch_cpus.iq.FU_type_0::InstPrefetch            0      0.00%    100.00% # Type of FU issued
system.switch_cpus.iq.FU_type_0::total       24877707                       # Type of FU issued
system.switch_cpus.iq.fp_alu_accesses          232758                       # Number of floating point alu accesses
system.switch_cpus.iq.fp_inst_queue_reads       460133                       # Number of floating instruction queue reads
system.switch_cpus.iq.fp_inst_queue_wakeup_accesses       201958                       # Number of floating instruction queue wakeup accesses
system.switch_cpus.iq.fp_inst_queue_writes       355988                       # Number of floating instruction queue writes
system.switch_cpus.iq.fu_busy_cnt              356429                       # FU busy when requested
system.switch_cpus.iq.fu_busy_rate           0.014327                       # FU busy rate (busy events/executed inst)
system.switch_cpus.iq.fu_full::No_OpClass            0      0.00%      0.00% # attempts to use FU when none available
system.switch_cpus.iq.fu_full::IntAlu          306033     85.86%     85.86% # attempts to use FU when none available
system.switch_cpus.iq.fu_full::IntMult              0      0.00%     85.86% # attempts to use FU when none available
system.switch_cpus.iq.fu_full::IntDiv               0      0.00%     85.86% # attempts to use FU when none available
system.switch_cpus.iq.fu_full::FloatAdd             0      0.00%     85.86% # attempts to use FU when none available
system.switch_cpus.iq.fu_full::FloatCmp             0      0.00%     85.86% # attempts to use FU when none available
system.switch_cpus.iq.fu_full::FloatCvt             0      0.00%     85.86% # attempts to use FU when none available
system.switch_cpus.iq.fu_full::FloatMult            0      0.00%     85.86% # attempts to use FU when none available
system.switch_cpus.iq.fu_full::FloatMultAcc            0      0.00%     85.86% # attempts to use FU when none available
system.switch_cpus.iq.fu_full::FloatDiv             0      0.00%     85.86% # attempts to use FU when none available
system.switch_cpus.iq.fu_full::FloatMisc            0      0.00%     85.86% # attempts to use FU when none available
system.switch_cpus.iq.fu_full::FloatSqrt            0      0.00%     85.86% # attempts to use FU when none available
system.switch_cpus.iq.fu_full::SimdAdd              0      0.00%     85.86% # attempts to use FU when none available
system.switch_cpus.iq.fu_full::SimdAddAcc            0      0.00%     85.86% # attempts to use FU when none available
system.switch_cpus.iq.fu_full::SimdAlu            567      0.16%     86.02% # attempts to use FU when none available
system.switch_cpus.iq.fu_full::SimdCmp              0      0.00%     86.02% # attempts to use FU when none available
system.switch_cpus.iq.fu_full::SimdCvt            375      0.11%     86.13% # attempts to use FU when none available
system.switch_cpus.iq.fu_full::SimdMisc           372      0.10%     86.23% # attempts to use FU when none available
system.switch_cpus.iq.fu_full::SimdMult             0      0.00%     86.23% # attempts to use FU when none available
system.switch_cpus.iq.fu_full::SimdMultAcc            0      0.00%     86.23% # attempts to use FU when none available
system.switch_cpus.iq.fu_full::SimdShift           99      0.03%     86.26% # attempts to use FU when none available
system.switch_cpus.iq.fu_full::SimdShiftAcc            0      0.00%     86.26% # attempts to use FU when none available
system.switch_cpus.iq.fu_full::SimdDiv              0      0.00%     86.26% # attempts to use FU when none available
system.switch_cpus.iq.fu_full::SimdSqrt             0      0.00%     86.26% # attempts to use FU when none available
system.switch_cpus.iq.fu_full::SimdFloatAdd            0      0.00%     86.26% # attempts to use FU when none available
system.switch_cpus.iq.fu_full::SimdFloatAlu            0      0.00%     86.26% # attempts to use FU when none available
system.switch_cpus.iq.fu_full::SimdFloatCmp            0      0.00%     86.26% # attempts to use FU when none available
system.switch_cpus.iq.fu_full::SimdFloatCvt            0      0.00%     86.26% # attempts to use FU when none available
system.switch_cpus.iq.fu_full::SimdFloatDiv            0      0.00%     86.26% # attempts to use FU when none available
system.switch_cpus.iq.fu_full::SimdFloatMisc            0      0.00%     86.26% # attempts to use FU when none available
system.switch_cpus.iq.fu_full::SimdFloatMult            0      0.00%     86.26% # attempts to use FU when none available
system.switch_cpus.iq.fu_full::SimdFloatMultAcc            0      0.00%     86.26% # attempts to use FU when none available
system.switch_cpus.iq.fu_full::SimdFloatSqrt            0      0.00%     86.26% # attempts to use FU when none available
system.switch_cpus.iq.fu_full::SimdReduceAdd            0      0.00%     86.26% # attempts to use FU when none available
system.switch_cpus.iq.fu_full::SimdReduceAlu            0      0.00%     86.26% # attempts to use FU when none available
system.switch_cpus.iq.fu_full::SimdReduceCmp            0      0.00%     86.26% # attempts to use FU when none available
system.switch_cpus.iq.fu_full::SimdFloatReduceAdd            0      0.00%     86.26% # attempts to use FU when none available
system.switch_cpus.iq.fu_full::SimdFloatReduceCmp            0      0.00%     86.26% # attempts to use FU when none available
system.switch_cpus.iq.fu_full::SimdAes              0      0.00%     86.26% # attempts to use FU when none available
system.switch_cpus.iq.fu_full::SimdAesMix            0      0.00%     86.26% # attempts to use FU when none available
system.switch_cpus.iq.fu_full::SimdSha1Hash            0      0.00%     86.26% # attempts to use FU when none available
system.switch_cpus.iq.fu_full::SimdSha1Hash2            0      0.00%     86.26% # attempts to use FU when none available
system.switch_cpus.iq.fu_full::SimdSha256Hash            0      0.00%     86.26% # attempts to use FU when none available
system.switch_cpus.iq.fu_full::SimdSha256Hash2            0      0.00%     86.26% # attempts to use FU when none available
system.switch_cpus.iq.fu_full::SimdShaSigma2            0      0.00%     86.26% # attempts to use FU when none available
system.switch_cpus.iq.fu_full::SimdShaSigma3            0      0.00%     86.26% # attempts to use FU when none available
system.switch_cpus.iq.fu_full::SimdPredAlu            0      0.00%     86.26% # attempts to use FU when none available
system.switch_cpus.iq.fu_full::MemRead          26947      7.56%     93.82% # attempts to use FU when none available
system.switch_cpus.iq.fu_full::MemWrite         13231      3.71%     97.53% # attempts to use FU when none available
system.switch_cpus.iq.fu_full::FloatMemRead         3717      1.04%     98.57% # attempts to use FU when none available
system.switch_cpus.iq.fu_full::FloatMemWrite         5088      1.43%    100.00% # attempts to use FU when none available
system.switch_cpus.iq.fu_full::IprAccess            0      0.00%    100.00% # attempts to use FU when none available
system.switch_cpus.iq.fu_full::InstPrefetch            0      0.00%    100.00% # attempts to use FU when none available
system.switch_cpus.iq.int_alu_accesses       24564172                       # Number of integer alu accesses
system.switch_cpus.iq.int_inst_queue_reads     61845976                       # Number of integer instruction queue reads
system.switch_cpus.iq.int_inst_queue_wakeup_accesses     23803768                       # Number of integer instruction queue wakeup accesses
system.switch_cpus.iq.int_inst_queue_writes     37027713                       # Number of integer instruction queue writes
system.switch_cpus.iq.iqInstsAdded           28098126                       # Number of instructions added to the IQ (excludes non-spec)
system.switch_cpus.iq.iqInstsIssued          24877707                       # Number of instructions issued
system.switch_cpus.iq.iqNonSpecInstsAdded         2127                       # Number of non-speculative instructions added to the IQ
system.switch_cpus.iq.iqSquashedInstsExamined      9282788                       # Number of squashed instructions iterated over during squash; mainly for profiling
system.switch_cpus.iq.iqSquashedInstsIssued        84500                       # Number of squashed instructions issued
system.switch_cpus.iq.iqSquashedNonSpecRemoved         1422                       # Number of squashed non-spec instructions that were removed
system.switch_cpus.iq.iqSquashedOperandsExamined     14005937                       # Number of squashed operands that are examined and possibly removed from graph
system.switch_cpus.iq.issued_per_cycle::samples     12109767                       # Number of insts issued each cycle
system.switch_cpus.iq.issued_per_cycle::mean     2.054351                       # Number of insts issued each cycle
system.switch_cpus.iq.issued_per_cycle::stdev     2.410541                       # Number of insts issued each cycle
system.switch_cpus.iq.issued_per_cycle::underflows            0      0.00%      0.00% # Number of insts issued each cycle
system.switch_cpus.iq.issued_per_cycle::0      5643342     46.60%     46.60% # Number of insts issued each cycle
system.switch_cpus.iq.issued_per_cycle::1       971339      8.02%     54.62% # Number of insts issued each cycle
system.switch_cpus.iq.issued_per_cycle::2       968384      8.00%     62.62% # Number of insts issued each cycle
system.switch_cpus.iq.issued_per_cycle::3      1060845      8.76%     71.38% # Number of insts issued each cycle
system.switch_cpus.iq.issued_per_cycle::4      1028801      8.50%     79.88% # Number of insts issued each cycle
system.switch_cpus.iq.issued_per_cycle::5       898848      7.42%     87.30% # Number of insts issued each cycle
system.switch_cpus.iq.issued_per_cycle::6       812344      6.71%     94.01% # Number of insts issued each cycle
system.switch_cpus.iq.issued_per_cycle::7       503355      4.16%     98.16% # Number of insts issued each cycle
system.switch_cpus.iq.issued_per_cycle::8       222509      1.84%    100.00% # Number of insts issued each cycle
system.switch_cpus.iq.issued_per_cycle::overflows            0      0.00%    100.00% # Number of insts issued each cycle
system.switch_cpus.iq.issued_per_cycle::min_value            0                       # Number of insts issued each cycle
system.switch_cpus.iq.issued_per_cycle::max_value            8                       # Number of insts issued each cycle
system.switch_cpus.iq.issued_per_cycle::total     12109767                       # Number of insts issued each cycle
system.switch_cpus.iq.rate                   1.970929                       # Inst issue rate
system.switch_cpus.iq.vec_alu_accesses              0                       # Number of vector alu accesses
system.switch_cpus.iq.vec_inst_queue_reads            0                       # Number of vector instruction queue reads
system.switch_cpus.iq.vec_inst_queue_wakeup_accesses            0                       # Number of vector instruction queue wakeup accesses
system.switch_cpus.iq.vec_inst_queue_writes            0                       # Number of vector instruction queue writes
system.switch_cpus.memDep0.conflictingLoads        51444                       # Number of conflicting loads.
system.switch_cpus.memDep0.conflictingStores        56228                       # Number of conflicting stores.
system.switch_cpus.memDep0.insertedLoads      4019850                       # Number of loads inserted to the mem dependence unit.
system.switch_cpus.memDep0.insertedStores      1674519                       # Number of stores inserted to the mem dependence unit.
system.switch_cpus.misc_regfile_reads        10353423                       # number of misc regfile reads
system.switch_cpus.misc_regfile_writes            639                       # number of misc regfile writes
system.switch_cpus.numCycles                 12622327                       # number of cpu cycles simulated
system.switch_cpus.numWorkItemsCompleted            0                       # number of work items this cpu completed
system.switch_cpus.numWorkItemsStarted              0                       # number of work items this cpu started
system.switch_cpus.timesIdled                   20507                       # Number of times that the entire CPU went into an idle state and unscheduled itself
system.tol2bus.snoop_filter.hit_multi_requests          849                       # Number of requests hitting in the snoop filter with multiple (>1) holders of the requested data.
system.tol2bus.snoop_filter.hit_multi_snoops            6                       # Number of snoops hitting in the snoop filter with multiple (>1) holders of the requested data.
system.tol2bus.snoop_filter.hit_single_requests       116988                       # Number of requests hitting in the snoop filter with a single holder of the requested data.
system.tol2bus.snoop_filter.hit_single_snoops         1909                       # Number of snoops hitting in the snoop filter with a single holder of the requested data.
system.tol2bus.snoop_filter.tot_requests       234521                       # Total number of requests made to the snoop filter.
system.tol2bus.snoop_filter.tot_snoops           1915                       # Total number of snoops made to the snoop filter.
system.clk_domain.clock                          1000                       # Clock period in ticks
system.cpu.branchPred.lookups                       0                       # Number of BP lookups
system.cpu.branchPred.condPredicted                 0                       # Number of conditional branches predicted
system.cpu.branchPred.condIncorrect                 0                       # Number of conditional branches incorrect
system.cpu.branchPred.BTBLookups                    0                       # Number of BTB lookups
system.cpu.branchPred.BTBHits                       0                       # Number of BTB hits
system.cpu.branchPred.BTBHitPct                   nan                       # BTB Hit Percentage
system.cpu.branchPred.RASUsed                       0                       # Number of times the RAS was used to get a target.
system.cpu.branchPred.RASIncorrect                  0                       # Number of incorrect RAS predictions.
system.cpu.branchPred.indirectLookups               0                       # Number of indirect predictor lookups.
system.cpu.branchPred.indirectHits                  0                       # Number of indirect target hits.
system.cpu.branchPred.indirectMisses                0                       # Number of indirect misses.
system.cpu.branchPred.indirectMispredicted            0                       # Number of mispredicted indirect branches.
system.cpu.dcache.demand_hits::.switch_cpus.data      4272575                       # number of demand (read+write) hits
system.cpu.dcache.demand_hits::total          4272575                       # number of demand (read+write) hits
system.cpu.dcache.overall_hits::.switch_cpus.data      4272774                       # number of overall hits
system.cpu.dcache.overall_hits::total         4272774                       # number of overall hits
system.cpu.dcache.demand_misses::.switch_cpus.data       120771                       # number of demand (read+write) misses
system.cpu.dcache.demand_misses::total         120771                       # number of demand (read+write) misses
system.cpu.dcache.overall_misses::.switch_cpus.data       120796                       # number of overall misses
system.cpu.dcache.overall_misses::total        120796                       # number of overall misses
system.cpu.dcache.demand_miss_latency::.switch_cpus.data   7149176498                       # number of demand (read+write) miss cycles
system.cpu.dcache.demand_miss_latency::total   7149176498                       # number of demand (read+write) miss cycles
system.cpu.dcache.overall_miss_latency::.switch_cpus.data   7149176498                       # number of overall miss cycles
system.cpu.dcache.overall_miss_latency::total   7149176498                       # number of overall miss cycles
system.cpu.dcache.demand_accesses::.switch_cpus.data      4393346                       # number of demand (read+write) accesses
system.cpu.dcache.demand_accesses::total      4393346                       # number of demand (read+write) accesses
system.cpu.dcache.overall_accesses::.switch_cpus.data      4393570                       # number of overall (read+write) accesses
system.cpu.dcache.overall_accesses::total      4393570                       # number of overall (read+write) accesses
system.cpu.dcache.demand_miss_rate::.switch_cpus.data     0.027490                       # miss rate for demand accesses
system.cpu.dcache.demand_miss_rate::total     0.027490                       # miss rate for demand accesses
system.cpu.dcache.overall_miss_rate::.switch_cpus.data     0.027494                       # miss rate for overall accesses
system.cpu.dcache.overall_miss_rate::total     0.027494                       # miss rate for overall accesses
system.cpu.dcache.demand_avg_miss_latency::.switch_cpus.data 59196.135645                       # average overall miss latency
system.cpu.dcache.demand_avg_miss_latency::total 59196.135645                       # average overall miss latency
system.cpu.dcache.overall_avg_miss_latency::.switch_cpus.data 59183.884384                       # average overall miss latency
system.cpu.dcache.overall_avg_miss_latency::total 59183.884384                       # average overall miss latency
system.cpu.dcache.blocked_cycles::no_mshrs       212061                       # number of cycles access was blocked
system.cpu.dcache.blocked_cycles::no_targets         1404                       # number of cycles access was blocked
system.cpu.dcache.blocked::no_mshrs              3048                       # number of cycles access was blocked
system.cpu.dcache.blocked::no_targets              30                       # number of cycles access was blocked
system.cpu.dcache.avg_blocked_cycles::no_mshrs    69.573819                       # average number of cycles each access was blocked
system.cpu.dcache.avg_blocked_cycles::no_targets    46.800000                       # average number of cycles each access was blocked
system.cpu.dcache.writebacks::.writebacks        22010                       # number of writebacks
system.cpu.dcache.writebacks::total             22010                       # number of writebacks
system.cpu.dcache.demand_mshr_hits::.switch_cpus.data        77301                       # number of demand (read+write) MSHR hits
system.cpu.dcache.demand_mshr_hits::total        77301                       # number of demand (read+write) MSHR hits
system.cpu.dcache.overall_mshr_hits::.switch_cpus.data        77301                       # number of overall MSHR hits
system.cpu.dcache.overall_mshr_hits::total        77301                       # number of overall MSHR hits
system.cpu.dcache.demand_mshr_misses::.switch_cpus.data        43470                       # number of demand (read+write) MSHR misses
system.cpu.dcache.demand_mshr_misses::total        43470                       # number of demand (read+write) MSHR misses
system.cpu.dcache.overall_mshr_misses::.switch_cpus.data        43477                       # number of overall MSHR misses
system.cpu.dcache.overall_mshr_misses::total        43477                       # number of overall MSHR misses
system.cpu.dcache.demand_mshr_miss_latency::.switch_cpus.data   2567904998                       # number of demand (read+write) MSHR miss cycles
system.cpu.dcache.demand_mshr_miss_latency::total   2567904998                       # number of demand (read+write) MSHR miss cycles
system.cpu.dcache.overall_mshr_miss_latency::.switch_cpus.data   2568275498                       # number of overall MSHR miss cycles
system.cpu.dcache.overall_mshr_miss_latency::total   2568275498                       # number of overall MSHR miss cycles
system.cpu.dcache.demand_mshr_miss_rate::.switch_cpus.data     0.009895                       # mshr miss rate for demand accesses
system.cpu.dcache.demand_mshr_miss_rate::total     0.009895                       # mshr miss rate for demand accesses
system.cpu.dcache.overall_mshr_miss_rate::.switch_cpus.data     0.009896                       # mshr miss rate for overall accesses
system.cpu.dcache.overall_mshr_miss_rate::total     0.009896                       # mshr miss rate for overall accesses
system.cpu.dcache.demand_avg_mshr_miss_latency::.switch_cpus.data 59073.038831                       # average overall mshr miss latency
system.cpu.dcache.demand_avg_mshr_miss_latency::total 59073.038831                       # average overall mshr miss latency
system.cpu.dcache.overall_avg_mshr_miss_latency::.switch_cpus.data 59072.049543                       # average overall mshr miss latency
system.cpu.dcache.overall_avg_mshr_miss_latency::total 59072.049543                       # average overall mshr miss latency
system.cpu.dcache.replacements                  43287                       # number of replacements
system.cpu.dcache.ReadReq_hits::.switch_cpus.data      3064840                       # number of ReadReq hits
system.cpu.dcache.ReadReq_hits::total         3064840                       # number of ReadReq hits
system.cpu.dcache.ReadReq_misses::.switch_cpus.data       105083                       # number of ReadReq misses
system.cpu.dcache.ReadReq_misses::total        105083                       # number of ReadReq misses
system.cpu.dcache.ReadReq_miss_latency::.switch_cpus.data   6022455000                       # number of ReadReq miss cycles
system.cpu.dcache.ReadReq_miss_latency::total   6022455000                       # number of ReadReq miss cycles
system.cpu.dcache.ReadReq_accesses::.switch_cpus.data      3169923                       # number of ReadReq accesses(hits+misses)
system.cpu.dcache.ReadReq_accesses::total      3169923                       # number of ReadReq accesses(hits+misses)
system.cpu.dcache.ReadReq_miss_rate::.switch_cpus.data     0.033150                       # miss rate for ReadReq accesses
system.cpu.dcache.ReadReq_miss_rate::total     0.033150                       # miss rate for ReadReq accesses
system.cpu.dcache.ReadReq_avg_miss_latency::.switch_cpus.data 57311.410980                       # average ReadReq miss latency
system.cpu.dcache.ReadReq_avg_miss_latency::total 57311.410980                       # average ReadReq miss latency
system.cpu.dcache.ReadReq_mshr_hits::.switch_cpus.data        77274                       # number of ReadReq MSHR hits
system.cpu.dcache.ReadReq_mshr_hits::total        77274                       # number of ReadReq MSHR hits
system.cpu.dcache.ReadReq_mshr_misses::.switch_cpus.data        27809                       # number of ReadReq MSHR misses
system.cpu.dcache.ReadReq_mshr_misses::total        27809                       # number of ReadReq MSHR misses
system.cpu.dcache.ReadReq_mshr_miss_latency::.switch_cpus.data   1458165500                       # number of ReadReq MSHR miss cycles
system.cpu.dcache.ReadReq_mshr_miss_latency::total   1458165500                       # number of ReadReq MSHR miss cycles
system.cpu.dcache.ReadReq_mshr_miss_rate::.switch_cpus.data     0.008773                       # mshr miss rate for ReadReq accesses
system.cpu.dcache.ReadReq_mshr_miss_rate::total     0.008773                       # mshr miss rate for ReadReq accesses
system.cpu.dcache.ReadReq_avg_mshr_miss_latency::.switch_cpus.data 52435.021036                       # average ReadReq mshr miss latency
system.cpu.dcache.ReadReq_avg_mshr_miss_latency::total 52435.021036                       # average ReadReq mshr miss latency
system.cpu.dcache.WriteReq_hits::.switch_cpus.data      1207735                       # number of WriteReq hits
system.cpu.dcache.WriteReq_hits::total        1207735                       # number of WriteReq hits
system.cpu.dcache.WriteReq_misses::.switch_cpus.data        15688                       # number of WriteReq misses
system.cpu.dcache.WriteReq_misses::total        15688                       # number of WriteReq misses
system.cpu.dcache.WriteReq_miss_latency::.switch_cpus.data   1126721498                       # number of WriteReq miss cycles
system.cpu.dcache.WriteReq_miss_latency::total   1126721498                       # number of WriteReq miss cycles
system.cpu.dcache.WriteReq_accesses::.switch_cpus.data      1223423                       # number of WriteReq accesses(hits+misses)
system.cpu.dcache.WriteReq_accesses::total      1223423                       # number of WriteReq accesses(hits+misses)
system.cpu.dcache.WriteReq_miss_rate::.switch_cpus.data     0.012823                       # miss rate for WriteReq accesses
system.cpu.dcache.WriteReq_miss_rate::total     0.012823                       # miss rate for WriteReq accesses
system.cpu.dcache.WriteReq_avg_miss_latency::.switch_cpus.data 71820.595232                       # average WriteReq miss latency
system.cpu.dcache.WriteReq_avg_miss_latency::total 71820.595232                       # average WriteReq miss latency
system.cpu.dcache.WriteReq_mshr_hits::.switch_cpus.data           27                       # number of WriteReq MSHR hits
system.cpu.dcache.WriteReq_mshr_hits::total           27                       # number of WriteReq MSHR hits
system.cpu.dcache.WriteReq_mshr_misses::.switch_cpus.data        15661                       # number of WriteReq MSHR misses
system.cpu.dcache.WriteReq_mshr_misses::total        15661                       # number of WriteReq MSHR misses
system.cpu.dcache.WriteReq_mshr_miss_latency::.switch_cpus.data   1109739498                       # number of WriteReq MSHR miss cycles
system.cpu.dcache.WriteReq_mshr_miss_latency::total   1109739498                       # number of WriteReq MSHR miss cycles
system.cpu.dcache.WriteReq_mshr_miss_rate::.switch_cpus.data     0.012801                       # mshr miss rate for WriteReq accesses
system.cpu.dcache.WriteReq_mshr_miss_rate::total     0.012801                       # mshr miss rate for WriteReq accesses
system.cpu.dcache.WriteReq_avg_mshr_miss_latency::.switch_cpus.data 70860.066279                       # average WriteReq mshr miss latency
system.cpu.dcache.WriteReq_avg_mshr_miss_latency::total 70860.066279                       # average WriteReq mshr miss latency
system.cpu.dcache.SoftPFReq_hits::.switch_cpus.data          199                       # number of SoftPFReq hits
system.cpu.dcache.SoftPFReq_hits::total           199                       # number of SoftPFReq hits
system.cpu.dcache.SoftPFReq_misses::.switch_cpus.data           25                       # number of SoftPFReq misses
system.cpu.dcache.SoftPFReq_misses::total           25                       # number of SoftPFReq misses
system.cpu.dcache.SoftPFReq_accesses::.switch_cpus.data          224                       # number of SoftPFReq accesses(hits+misses)
system.cpu.dcache.SoftPFReq_accesses::total          224                       # number of SoftPFReq accesses(hits+misses)
system.cpu.dcache.SoftPFReq_miss_rate::.switch_cpus.data     0.111607                       # miss rate for SoftPFReq accesses
system.cpu.dcache.SoftPFReq_miss_rate::total     0.111607                       # miss rate for SoftPFReq accesses
system.cpu.dcache.SoftPFReq_mshr_misses::.switch_cpus.data            7                       # number of SoftPFReq MSHR misses
system.cpu.dcache.SoftPFReq_mshr_misses::total            7                       # number of SoftPFReq MSHR misses
system.cpu.dcache.SoftPFReq_mshr_miss_latency::.switch_cpus.data       370500                       # number of SoftPFReq MSHR miss cycles
system.cpu.dcache.SoftPFReq_mshr_miss_latency::total       370500                       # number of SoftPFReq MSHR miss cycles
system.cpu.dcache.SoftPFReq_mshr_miss_rate::.switch_cpus.data     0.031250                       # mshr miss rate for SoftPFReq accesses
system.cpu.dcache.SoftPFReq_mshr_miss_rate::total     0.031250                       # mshr miss rate for SoftPFReq accesses
system.cpu.dcache.SoftPFReq_avg_mshr_miss_latency::.switch_cpus.data 52928.571429                       # average SoftPFReq mshr miss latency
system.cpu.dcache.SoftPFReq_avg_mshr_miss_latency::total 52928.571429                       # average SoftPFReq mshr miss latency
system.cpu.dcache.power_state.pwrStateResidencyTicks::UNDEFINED   7361526500                       # Cumulative time (in ticks) in various power states
system.cpu.dcache.tags.tagsinuse                 1024                       # Cycle average of tags in use
system.cpu.dcache.tags.total_refs             4518497                       # Total number of references to valid blocks.
system.cpu.dcache.tags.sampled_refs             44311                       # Sample count of references to valid blocks.
system.cpu.dcache.tags.avg_refs            101.972354                       # Average number of references to valid blocks.
system.cpu.dcache.tags.warmup_cycle                 0                       # Cycle when the warmup percentage was hit.
system.cpu.dcache.tags.occ_blocks::.cpu.data    15.441736                       # Average occupied blocks per requestor
system.cpu.dcache.tags.occ_blocks::.switch_cpus.data  1008.558264                       # Average occupied blocks per requestor
system.cpu.dcache.tags.occ_percent::.cpu.data     0.015080                       # Average percentage of cache occupancy
system.cpu.dcache.tags.occ_percent::.switch_cpus.data     0.984920                       # Average percentage of cache occupancy
system.cpu.dcache.tags.occ_percent::total            1                       # Average percentage of cache occupancy
system.cpu.dcache.tags.occ_task_id_blocks::1024         1024                       # Occupied blocks per task id
system.cpu.dcache.tags.age_task_id_blocks_1024::0           69                       # Occupied blocks per task id
system.cpu.dcache.tags.age_task_id_blocks_1024::1          454                       # Occupied blocks per task id
system.cpu.dcache.tags.age_task_id_blocks_1024::2          474                       # Occupied blocks per task id
system.cpu.dcache.tags.age_task_id_blocks_1024::3           27                       # Occupied blocks per task id
system.cpu.dcache.tags.occ_task_id_percent::1024            1                       # Percentage of cache occupancy per task id
system.cpu.dcache.tags.tag_accesses           8830427                       # Number of tag accesses
system.cpu.dcache.tags.data_accesses          8830427                       # Number of data accesses
system.cpu.dcache.tags.power_state.pwrStateResidencyTicks::UNDEFINED   7361526500                       # Cumulative time (in ticks) in various power states
system.cpu.dtb.rdAccesses                           0                       # TLB accesses on read requests
system.cpu.dtb.wrAccesses                           0                       # TLB accesses on write requests
system.cpu.dtb.rdMisses                             0                       # TLB misses on read requests
system.cpu.dtb.wrMisses                             0                       # TLB misses on write requests
system.cpu.dtb.walker.power_state.pwrStateResidencyTicks::UNDEFINED   7361526500                       # Cumulative time (in ticks) in various power states
system.cpu.dtb_walker_cache.blocked_cycles::no_mshrs            0                       # number of cycles access was blocked
system.cpu.dtb_walker_cache.blocked_cycles::no_targets            0                       # number of cycles access was blocked
system.cpu.dtb_walker_cache.blocked::no_mshrs            0                       # number of cycles access was blocked
system.cpu.dtb_walker_cache.blocked::no_targets            0                       # number of cycles access was blocked
system.cpu.dtb_walker_cache.avg_blocked_cycles::no_mshrs          nan                       # average number of cycles each access was blocked
system.cpu.dtb_walker_cache.avg_blocked_cycles::no_targets          nan                       # average number of cycles each access was blocked
system.cpu.dtb_walker_cache.replacements            0                       # number of replacements
system.cpu.dtb_walker_cache.power_state.pwrStateResidencyTicks::UNDEFINED   7361526500                       # Cumulative time (in ticks) in various power states
system.cpu.dtb_walker_cache.tags.tagsinuse            0                       # Cycle average of tags in use
system.cpu.dtb_walker_cache.tags.total_refs            0                       # Total number of references to valid blocks.
system.cpu.dtb_walker_cache.tags.sampled_refs            0                       # Sample count of references to valid blocks.
system.cpu.dtb_walker_cache.tags.avg_refs          nan                       # Average number of references to valid blocks.
system.cpu.dtb_walker_cache.tags.warmup_cycle            0                       # Cycle when the warmup percentage was hit.
system.cpu.dtb_walker_cache.tags.tag_accesses            0                       # Number of tag accesses
system.cpu.dtb_walker_cache.tags.data_accesses            0                       # Number of data accesses
system.cpu.dtb_walker_cache.tags.power_state.pwrStateResidencyTicks::UNDEFINED   7361526500                       # Cumulative time (in ticks) in various power states
system.cpu.icache.demand_hits::.switch_cpus.inst      2424155                       # number of demand (read+write) hits
system.cpu.icache.demand_hits::total          2424155                       # number of demand (read+write) hits
system.cpu.icache.overall_hits::.switch_cpus.inst      2424155                       # number of overall hits
system.cpu.icache.overall_hits::total         2424155                       # number of overall hits
system.cpu.icache.demand_misses::.switch_cpus.inst        84762                       # number of demand (read+write) misses
system.cpu.icache.demand_misses::total          84762                       # number of demand (read+write) misses
system.cpu.icache.overall_misses::.switch_cpus.inst        84762                       # number of overall misses
system.cpu.icache.overall_misses::total         84762                       # number of overall misses
system.cpu.icache.demand_miss_latency::.switch_cpus.inst   1671080498                       # number of demand (read+write) miss cycles
system.cpu.icache.demand_miss_latency::total   1671080498                       # number of demand (read+write) miss cycles
system.cpu.icache.overall_miss_latency::.switch_cpus.inst   1671080498                       # number of overall miss cycles
system.cpu.icache.overall_miss_latency::total   1671080498                       # number of overall miss cycles
system.cpu.icache.demand_accesses::.switch_cpus.inst      2508917                       # number of demand (read+write) accesses
system.cpu.icache.demand_accesses::total      2508917                       # number of demand (read+write) accesses
system.cpu.icache.overall_accesses::.switch_cpus.inst      2508917                       # number of overall (read+write) accesses
system.cpu.icache.overall_accesses::total      2508917                       # number of overall (read+write) accesses
system.cpu.icache.demand_miss_rate::.switch_cpus.inst     0.033784                       # miss rate for demand accesses
system.cpu.icache.demand_miss_rate::total     0.033784                       # miss rate for demand accesses
system.cpu.icache.overall_miss_rate::.switch_cpus.inst     0.033784                       # miss rate for overall accesses
system.cpu.icache.overall_miss_rate::total     0.033784                       # miss rate for overall accesses
system.cpu.icache.demand_avg_miss_latency::.switch_cpus.inst 19714.972488                       # average overall miss latency
system.cpu.icache.demand_avg_miss_latency::total 19714.972488                       # average overall miss latency
system.cpu.icache.overall_avg_miss_latency::.switch_cpus.inst 19714.972488                       # average overall miss latency
system.cpu.icache.overall_avg_miss_latency::total 19714.972488                       # average overall miss latency
system.cpu.icache.blocked_cycles::no_mshrs         2710                       # number of cycles access was blocked
system.cpu.icache.blocked_cycles::no_targets           49                       # number of cycles access was blocked
system.cpu.icache.blocked::no_mshrs                40                       # number of cycles access was blocked
system.cpu.icache.blocked::no_targets               1                       # number of cycles access was blocked
system.cpu.icache.avg_blocked_cycles::no_mshrs    67.750000                       # average number of cycles each access was blocked
system.cpu.icache.avg_blocked_cycles::no_targets           49                       # average number of cycles each access was blocked
system.cpu.icache.writebacks::.writebacks        73622                       # number of writebacks
system.cpu.icache.writebacks::total             73622                       # number of writebacks
system.cpu.icache.demand_mshr_hits::.switch_cpus.inst        10627                       # number of demand (read+write) MSHR hits
system.cpu.icache.demand_mshr_hits::total        10627                       # number of demand (read+write) MSHR hits
system.cpu.icache.overall_mshr_hits::.switch_cpus.inst        10627                       # number of overall MSHR hits
system.cpu.icache.overall_mshr_hits::total        10627                       # number of overall MSHR hits
system.cpu.icache.demand_mshr_misses::.switch_cpus.inst        74135                       # number of demand (read+write) MSHR misses
system.cpu.icache.demand_mshr_misses::total        74135                       # number of demand (read+write) MSHR misses
system.cpu.icache.overall_mshr_misses::.switch_cpus.inst        74135                       # number of overall MSHR misses
system.cpu.icache.overall_mshr_misses::total        74135                       # number of overall MSHR misses
system.cpu.icache.demand_mshr_miss_latency::.switch_cpus.inst   1378241999                       # number of demand (read+write) MSHR miss cycles
system.cpu.icache.demand_mshr_miss_latency::total   1378241999                       # number of demand (read+write) MSHR miss cycles
system.cpu.icache.overall_mshr_miss_latency::.switch_cpus.inst   1378241999                       # number of overall MSHR miss cycles
system.cpu.icache.overall_mshr_miss_latency::total   1378241999                       # number of overall MSHR miss cycles
system.cpu.icache.demand_mshr_miss_rate::.switch_cpus.inst     0.029549                       # mshr miss rate for demand accesses
system.cpu.icache.demand_mshr_miss_rate::total     0.029549                       # mshr miss rate for demand accesses
system.cpu.icache.overall_mshr_miss_rate::.switch_cpus.inst     0.029549                       # mshr miss rate for overall accesses
system.cpu.icache.overall_mshr_miss_rate::total     0.029549                       # mshr miss rate for overall accesses
system.cpu.icache.demand_avg_mshr_miss_latency::.switch_cpus.inst 18590.975909                       # average overall mshr miss latency
system.cpu.icache.demand_avg_mshr_miss_latency::total 18590.975909                       # average overall mshr miss latency
system.cpu.icache.overall_avg_mshr_miss_latency::.switch_cpus.inst 18590.975909                       # average overall mshr miss latency
system.cpu.icache.overall_avg_mshr_miss_latency::total 18590.975909                       # average overall mshr miss latency
system.cpu.icache.replacements                  73622                       # number of replacements
system.cpu.icache.ReadReq_hits::.switch_cpus.inst      2424155                       # number of ReadReq hits
system.cpu.icache.ReadReq_hits::total         2424155                       # number of ReadReq hits
system.cpu.icache.ReadReq_misses::.switch_cpus.inst        84762                       # number of ReadReq misses
system.cpu.icache.ReadReq_misses::total         84762                       # number of ReadReq misses
system.cpu.icache.ReadReq_miss_latency::.switch_cpus.inst   1671080498                       # number of ReadReq miss cycles
system.cpu.icache.ReadReq_miss_latency::total   1671080498                       # number of ReadReq miss cycles
system.cpu.icache.ReadReq_accesses::.switch_cpus.inst      2508917                       # number of ReadReq accesses(hits+misses)
system.cpu.icache.ReadReq_accesses::total      2508917                       # number of ReadReq accesses(hits+misses)
system.cpu.icache.ReadReq_miss_rate::.switch_cpus.inst     0.033784                       # miss rate for ReadReq accesses
system.cpu.icache.ReadReq_miss_rate::total     0.033784                       # miss rate for ReadReq accesses
system.cpu.icache.ReadReq_avg_miss_latency::.switch_cpus.inst 19714.972488                       # average ReadReq miss latency
system.cpu.icache.ReadReq_avg_miss_latency::total 19714.972488                       # average ReadReq miss latency
system.cpu.icache.ReadReq_mshr_hits::.switch_cpus.inst        10627                       # number of ReadReq MSHR hits
system.cpu.icache.ReadReq_mshr_hits::total        10627                       # number of ReadReq MSHR hits
system.cpu.icache.ReadReq_mshr_misses::.switch_cpus.inst        74135                       # number of ReadReq MSHR misses
system.cpu.icache.ReadReq_mshr_misses::total        74135                       # number of ReadReq MSHR misses
system.cpu.icache.ReadReq_mshr_miss_latency::.switch_cpus.inst   1378241999                       # number of ReadReq MSHR miss cycles
system.cpu.icache.ReadReq_mshr_miss_latency::total   1378241999                       # number of ReadReq MSHR miss cycles
system.cpu.icache.ReadReq_mshr_miss_rate::.switch_cpus.inst     0.029549                       # mshr miss rate for ReadReq accesses
system.cpu.icache.ReadReq_mshr_miss_rate::total     0.029549                       # mshr miss rate for ReadReq accesses
system.cpu.icache.ReadReq_avg_mshr_miss_latency::.switch_cpus.inst 18590.975909                       # average ReadReq mshr miss latency
system.cpu.icache.ReadReq_avg_mshr_miss_latency::total 18590.975909                       # average ReadReq mshr miss latency
system.cpu.icache.power_state.pwrStateResidencyTicks::UNDEFINED   7361526500                       # Cumulative time (in ticks) in various power states
system.cpu.icache.tags.tagsinuse           963.135575                       # Cycle average of tags in use
system.cpu.icache.tags.total_refs             3833063                       # Total number of references to valid blocks.
system.cpu.icache.tags.sampled_refs             74805                       # Sample count of references to valid blocks.
system.cpu.icache.tags.avg_refs             51.240733                       # Average number of references to valid blocks.
system.cpu.icache.tags.warmup_cycle                 0                       # Cycle when the warmup percentage was hit.
system.cpu.icache.tags.occ_blocks::.cpu.inst   126.623380                       # Average occupied blocks per requestor
system.cpu.icache.tags.occ_blocks::.switch_cpus.inst   836.512195                       # Average occupied blocks per requestor
system.cpu.icache.tags.occ_percent::.cpu.inst     0.123656                       # Average percentage of cache occupancy
system.cpu.icache.tags.occ_percent::.switch_cpus.inst     0.816906                       # Average percentage of cache occupancy
system.cpu.icache.tags.occ_percent::total     0.940562                       # Average percentage of cache occupancy
system.cpu.icache.tags.occ_task_id_blocks::1024          998                       # Occupied blocks per task id
system.cpu.icache.tags.age_task_id_blocks_1024::0           68                       # Occupied blocks per task id
system.cpu.icache.tags.age_task_id_blocks_1024::1          261                       # Occupied blocks per task id
system.cpu.icache.tags.age_task_id_blocks_1024::2          258                       # Occupied blocks per task id
system.cpu.icache.tags.age_task_id_blocks_1024::3          411                       # Occupied blocks per task id
system.cpu.icache.tags.occ_task_id_percent::1024     0.974609                       # Percentage of cache occupancy per task id
system.cpu.icache.tags.tag_accesses           5091969                       # Number of tag accesses
system.cpu.icache.tags.data_accesses          5091969                       # Number of data accesses
system.cpu.icache.tags.power_state.pwrStateResidencyTicks::UNDEFINED   7361526500                       # Cumulative time (in ticks) in various power states
system.cpu.interrupts.clk_domain.clock           8000                       # Clock period in ticks
system.cpu.itb.rdAccesses                           0                       # TLB accesses on read requests
system.cpu.itb.wrAccesses                           0                       # TLB accesses on write requests
system.cpu.itb.rdMisses                             0                       # TLB misses on read requests
system.cpu.itb.wrMisses                             0                       # TLB misses on write requests
system.cpu.itb.walker.power_state.pwrStateResidencyTicks::UNDEFINED   7361526500                       # Cumulative time (in ticks) in various power states
system.cpu.itb_walker_cache.blocked_cycles::no_mshrs            0                       # number of cycles access was blocked
system.cpu.itb_walker_cache.blocked_cycles::no_targets            0                       # number of cycles access was blocked
system.cpu.itb_walker_cache.blocked::no_mshrs            0                       # number of cycles access was blocked
system.cpu.itb_walker_cache.blocked::no_targets            0                       # number of cycles access was blocked
system.cpu.itb_walker_cache.avg_blocked_cycles::no_mshrs          nan                       # average number of cycles each access was blocked
system.cpu.itb_walker_cache.avg_blocked_cycles::no_targets          nan                       # average number of cycles each access was blocked
system.cpu.itb_walker_cache.replacements            0                       # number of replacements
system.cpu.itb_walker_cache.power_state.pwrStateResidencyTicks::UNDEFINED   7361526500                       # Cumulative time (in ticks) in various power states
system.cpu.itb_walker_cache.tags.tagsinuse            0                       # Cycle average of tags in use
system.cpu.itb_walker_cache.tags.total_refs            0                       # Total number of references to valid blocks.
system.cpu.itb_walker_cache.tags.sampled_refs            0                       # Sample count of references to valid blocks.
system.cpu.itb_walker_cache.tags.avg_refs          nan                       # Average number of references to valid blocks.
system.cpu.itb_walker_cache.tags.warmup_cycle            0                       # Cycle when the warmup percentage was hit.
system.cpu.itb_walker_cache.tags.tag_accesses            0                       # Number of tag accesses
system.cpu.itb_walker_cache.tags.data_accesses            0                       # Number of data accesses
system.cpu.itb_walker_cache.tags.power_state.pwrStateResidencyTicks::UNDEFINED   7361526500                       # Cumulative time (in ticks) in various power states
system.cpu.power_state.pwrStateResidencyTicks::OFF   6311163500                       # Cumulative time (in ticks) in various power states
system.cpu.thread_0.numInsts                        0                       # Number of Instructions committed
system.cpu.thread_0.numOps                          0                       # Number of Ops committed
system.cpu.thread_0.numMemRefs                      0                       # Number of Memory References
system.cpu_clk_domain.clock                       500                       # Clock period in ticks
system.cpu_voltage_domain.voltage                   1                       # Voltage in Volts
system.l2.demand_hits::.switch_cpus.inst        67234                       # number of demand (read+write) hits
system.l2.demand_hits::.switch_cpus.data        14287                       # number of demand (read+write) hits
system.l2.demand_hits::total                    81521                       # number of demand (read+write) hits
system.l2.overall_hits::.switch_cpus.inst        67234                       # number of overall hits
system.l2.overall_hits::.switch_cpus.data        14287                       # number of overall hits
system.l2.overall_hits::total                   81521                       # number of overall hits
system.l2.demand_misses::.switch_cpus.inst         6611                       # number of demand (read+write) misses
system.l2.demand_misses::.switch_cpus.data        29000                       # number of demand (read+write) misses
system.l2.demand_misses::total                  35611                       # number of demand (read+write) misses
system.l2.overall_misses::.switch_cpus.inst         6611                       # number of overall misses
system.l2.overall_misses::.switch_cpus.data        29000                       # number of overall misses
system.l2.overall_misses::total                 35611                       # number of overall misses
system.l2.demand_miss_latency::.switch_cpus.inst    557113000                       # number of demand (read+write) miss cycles
system.l2.demand_miss_latency::.switch_cpus.data   2348521500                       # number of demand (read+write) miss cycles
system.l2.demand_miss_latency::total       2905634500                       # number of demand (read+write) miss cycles
system.l2.overall_miss_latency::.switch_cpus.inst    557113000                       # number of overall miss cycles
system.l2.overall_miss_latency::.switch_cpus.data   2348521500                       # number of overall miss cycles
system.l2.overall_miss_latency::total      2905634500                       # number of overall miss cycles
system.l2.demand_accesses::.switch_cpus.inst        73845                       # number of demand (read+write) accesses
system.l2.demand_accesses::.switch_cpus.data        43287                       # number of demand (read+write) accesses
system.l2.demand_accesses::total               117132                       # number of demand (read+write) accesses
system.l2.overall_accesses::.switch_cpus.inst        73845                       # number of overall (read+write) accesses
system.l2.overall_accesses::.switch_cpus.data        43287                       # number of overall (read+write) accesses
system.l2.overall_accesses::total              117132                       # number of overall (read+write) accesses
system.l2.demand_miss_rate::.switch_cpus.inst     0.089525                       # miss rate for demand accesses
system.l2.demand_miss_rate::.switch_cpus.data     0.669947                       # miss rate for demand accesses
system.l2.demand_miss_rate::total            0.304025                       # miss rate for demand accesses
system.l2.overall_miss_rate::.switch_cpus.inst     0.089525                       # miss rate for overall accesses
system.l2.overall_miss_rate::.switch_cpus.data     0.669947                       # miss rate for overall accesses
system.l2.overall_miss_rate::total           0.304025                       # miss rate for overall accesses
system.l2.demand_avg_miss_latency::.switch_cpus.inst 84270.609590                       # average overall miss latency
system.l2.demand_avg_miss_latency::.switch_cpus.data 80983.500000                       # average overall miss latency
system.l2.demand_avg_miss_latency::total 81593.735082                       # average overall miss latency
system.l2.overall_avg_miss_latency::.switch_cpus.inst 84270.609590                       # average overall miss latency
system.l2.overall_avg_miss_latency::.switch_cpus.data 80983.500000                       # average overall miss latency
system.l2.overall_avg_miss_latency::total 81593.735082                       # average overall miss latency
system.l2.blocked_cycles::no_mshrs                  0                       # number of cycles access was blocked
system.l2.blocked_cycles::no_targets                0                       # number of cycles access was blocked
system.l2.blocked::no_mshrs                         0                       # number of cycles access was blocked
system.l2.blocked::no_targets                       0                       # number of cycles access was blocked
system.l2.avg_blocked_cycles::no_mshrs            nan                       # average number of cycles each access was blocked
system.l2.avg_blocked_cycles::no_targets          nan                       # average number of cycles each access was blocked
system.l2.writebacks::.writebacks               11683                       # number of writebacks
system.l2.writebacks::total                     11683                       # number of writebacks
system.l2.demand_mshr_hits::.switch_cpus.inst            1                       # number of demand (read+write) MSHR hits
system.l2.demand_mshr_hits::.switch_cpus.data            1                       # number of demand (read+write) MSHR hits
system.l2.demand_mshr_hits::total                   2                       # number of demand (read+write) MSHR hits
system.l2.overall_mshr_hits::.switch_cpus.inst            1                       # number of overall MSHR hits
system.l2.overall_mshr_hits::.switch_cpus.data            1                       # number of overall MSHR hits
system.l2.overall_mshr_hits::total                  2                       # number of overall MSHR hits
system.l2.demand_mshr_misses::.switch_cpus.inst         6610                       # number of demand (read+write) MSHR misses
system.l2.demand_mshr_misses::.switch_cpus.data        28999                       # number of demand (read+write) MSHR misses
system.l2.demand_mshr_misses::total             35609                       # number of demand (read+write) MSHR misses
system.l2.overall_mshr_misses::.switch_cpus.inst         6610                       # number of overall MSHR misses
system.l2.overall_mshr_misses::.switch_cpus.data        28999                       # number of overall MSHR misses
system.l2.overall_mshr_misses::total            35609                       # number of overall MSHR misses
system.l2.demand_mshr_miss_latency::.switch_cpus.inst    490993500                       # number of demand (read+write) MSHR miss cycles
system.l2.demand_mshr_miss_latency::.switch_cpus.data   2058491500                       # number of demand (read+write) MSHR miss cycles
system.l2.demand_mshr_miss_latency::total   2549485000                       # number of demand (read+write) MSHR miss cycles
system.l2.overall_mshr_miss_latency::.switch_cpus.inst    490993500                       # number of overall MSHR miss cycles
system.l2.overall_mshr_miss_latency::.switch_cpus.data   2058491500                       # number of overall MSHR miss cycles
system.l2.overall_mshr_miss_latency::total   2549485000                       # number of overall MSHR miss cycles
system.l2.demand_mshr_miss_rate::.switch_cpus.inst     0.089512                       # mshr miss rate for demand accesses
system.l2.demand_mshr_miss_rate::.switch_cpus.data     0.669924                       # mshr miss rate for demand accesses
system.l2.demand_mshr_miss_rate::total       0.304007                       # mshr miss rate for demand accesses
system.l2.overall_mshr_miss_rate::.switch_cpus.inst     0.089512                       # mshr miss rate for overall accesses
system.l2.overall_mshr_miss_rate::.switch_cpus.data     0.669924                       # mshr miss rate for overall accesses
system.l2.overall_mshr_miss_rate::total      0.304007                       # mshr miss rate for overall accesses
system.l2.demand_avg_mshr_miss_latency::.switch_cpus.inst 74280.408472                       # average overall mshr miss latency
system.l2.demand_avg_mshr_miss_latency::.switch_cpus.data 70984.913273                       # average overall mshr miss latency
system.l2.demand_avg_mshr_miss_latency::total 71596.646915                       # average overall mshr miss latency
system.l2.overall_avg_mshr_miss_latency::.switch_cpus.inst 74280.408472                       # average overall mshr miss latency
system.l2.overall_avg_mshr_miss_latency::.switch_cpus.data 70984.913273                       # average overall mshr miss latency
system.l2.overall_avg_mshr_miss_latency::total 71596.646915                       # average overall mshr miss latency
system.l2.replacements                          35464                       # number of replacements
system.l2.WritebackDirty_hits::.writebacks        22010                       # number of WritebackDirty hits
system.l2.WritebackDirty_hits::total            22010                       # number of WritebackDirty hits
system.l2.WritebackDirty_accesses::.writebacks        22010                       # number of WritebackDirty accesses(hits+misses)
system.l2.WritebackDirty_accesses::total        22010                       # number of WritebackDirty accesses(hits+misses)
system.l2.WritebackClean_hits::.writebacks        73460                       # number of WritebackClean hits
system.l2.WritebackClean_hits::total            73460                       # number of WritebackClean hits
system.l2.WritebackClean_accesses::.writebacks        73460                       # number of WritebackClean accesses(hits+misses)
system.l2.WritebackClean_accesses::total        73460                       # number of WritebackClean accesses(hits+misses)
system.l2.CleanEvict_mshr_misses::.writebacks           48                       # number of CleanEvict MSHR misses
system.l2.CleanEvict_mshr_misses::total            48                       # number of CleanEvict MSHR misses
system.l2.CleanEvict_mshr_miss_rate::.writebacks          inf                       # mshr miss rate for CleanEvict accesses
[...]
system.switch_cpus.commit.committedInstType_0::SimdCmp           60      0.00%     79.45% # Class of committed instruction
system.switch_cpus.commit.committedInstType_0::SimdCvt        10190      0.05%     79.51% # Class of committed instruction
system.switch_cpus.commit.committedInstType_0::SimdMisc        14930      0.08%     79.59% # Class of committed instruction
system.switch_cpus.commit.committedInstType_0::SimdMult            0      0.00%     79.59% # Class of committed instruction
system.switch_cpus.commit.committedInstType_0::SimdMultAcc            0      0.00%     79.59% # Class of committed instruction
system.switch_cpus.commit.committedInstType_0::SimdShift         1042      0.01%     79.59% # Class of committed instruction
system.switch_cpus.commit.committedInstType_0::SimdShiftAcc            0      0.00%     79.59% # Class of committed instruction
system.switch_cpus.commit.committedInstType_0::SimdDiv            0      0.00%     79.59% # Class of committed instruction
system.switch_cpus.commit.committedInstType_0::SimdSqrt            0      0.00%     79.59% # Class of committed instruction
system.switch_cpus.commit.committedInstType_0::SimdFloatAdd            5      0.00%     79.59% # Class of committed instruction
system.switch_cpus.commit.committedInstType_0::SimdFloatAlu            0      0.00%     79.59% # Class of committed instruction
system.switch_cpus.commit.committedInstType_0::SimdFloatCmp            0      0.00%     79.59% # Class of committed instruction
system.switch_cpus.commit.committedInstType_0::SimdFloatCvt          178      0.00%     79.59% # Class of committed instruction
system.switch_cpus.commit.committedInstType_0::SimdFloatDiv            1      0.00%     79.59% # Class of committed instruction
system.switch_cpus.commit.committedInstType_0::SimdFloatMisc            0      0.00%     79.59% # Class of committed instruction
system.switch_cpus.commit.committedInstType_0::SimdFloatMult           62      0.00%     79.59% # Class of committed instruction
system.switch_cpus.commit.committedInstType_0::SimdFloatMultAcc            0      0.00%     79.59% # Class of committed instruction
system.switch_cpus.commit.committedInstType_0::SimdFloatSqrt            1      0.00%     79.59% # Class of committed instruction
system.switch_cpus.commit.committedInstType_0::SimdReduceAdd            0      0.00%     79.59% # Class of committed instruction
system.switch_cpus.commit.committedInstType_0::SimdReduceAlu            0      0.00%     79.59% # Class of committed instruction
system.switch_cpus.commit.committedInstType_0::SimdReduceCmp            0      0.00%     79.59% # Class of committed instruction
system.switch_cpus.commit.committedInstType_0::SimdFloatReduceAdd            0      0.00%     79.59% # Class of committed instruction
system.switch_cpus.commit.committedInstType_0::SimdFloatReduceCmp            0      0.00%     79.59% # Class of committed instruction
system.switch_cpus.commit.committedInstType_0::SimdAes            0      0.00%     79.59% # Class of committed instruction
system.switch_cpus.commit.committedInstType_0::SimdAesMix            0      0.00%     79.59% # Class of committed instruction
system.switch_cpus.commit.committedInstType_0::SimdSha1Hash            0      0.00%     79.59% # Class of committed instruction
system.switch_cpus.commit.committedInstType_0::SimdSha1Hash2            0      0.00%     79.59% # Class of committed instruction
system.switch_cpus.commit.committedInstType_0::SimdSha256Hash            0      0.00%     79.59% # Class of committed instruction
system.switch_cpus.commit.committedInstType_0::SimdSha256Hash2            0      0.00%     79.59% # Class of committed instruction
system.switch_cpus.commit.committedInstType_0::SimdShaSigma2            0      0.00%     79.59% # Class of committed instruction
system.switch_cpus.commit.committedInstType_0::SimdShaSigma3            0      0.00%     79.59% # Class of committed instruction
system.switch_cpus.commit.committedInstType_0::SimdPredAlu            0      0.00%     79.59% # Class of committed instruction
system.switch_cpus.commit.committedInstType_0::MemRead      2584754     13.74%     93.33% # Class of committed instruction
system.switch_cpus.commit.committedInstType_0::MemWrite      1160959      6.17%     99.50% # Class of committed instruction
system.switch_cpus.commit.committedInstType_0::FloatMemRead        32628      0.17%     99.67% # Class of committed instruction
system.switch_cpus.commit.committedInstType_0::FloatMemWrite        61595      0.33%    100.00% # Class of committed instruction
system.switch_cpus.commit.committedInstType_0::IprAccess            0      0.00%    100.00% # Class of committed instruction
system.switch_cpus.commit.committedInstType_0::InstPrefetch            0      0.00%    100.00% # Class of committed instruction
system.switch_cpus.commit.committedInstType_0::total     18817440                       # Class of committed instruction
system.switch_cpus.commit.commitEligibleSamples      1006387                       # number cycles where commit BW limit reached
system.switch_cpus.decode.idleCycles          3702687                       # Number of cycles decode is idle
system.switch_cpus.decode.blockedCycles       3400063                       # Number of cycles decode is blocked
system.switch_cpus.decode.runCycles           4346668                       # Number of cycles decode is running
system.switch_cpus.decode.unblockCycles        403959                       # Number of cycles decode is unblocking
system.switch_cpus.decode.squashCycles         256388                       # Number of cycles decode is squashing
system.switch_cpus.decode.branchResolved      1721314                       # Number of times decode resolved a  branch
system.switch_cpus.decode.branchMispred         20335                       # Number of times decode detected a branch misprediction
system.switch_cpus.decode.decodedInsts       31110689                       # Number of instructions handled by decode
system.switch_cpus.decode.squashedInsts         91613                       # Number of squashed instructions handled by decode
system.switch_cpus.dtb.rdAccesses             3503857                       # TLB accesses on read requests
system.switch_cpus.dtb.wrAccesses             1453702                       # TLB accesses on write requests
system.switch_cpus.dtb.rdMisses                  4931                       # TLB misses on read requests
system.switch_cpus.dtb.wrMisses                  1355                       # TLB misses on write requests
system.switch_cpus.dtb.walker.power_state.pwrStateResidencyTicks::UNDEFINED   7361526500                       # Cumulative time (in ticks) in various power states
system.switch_cpus.fetch.icacheStallCycles      4069973                       # Number of cycles fetch is stalled on an Icache miss
system.switch_cpus.fetch.insts               16783746                       # Number of instructions fetch has processed
system.switch_cpus.fetch.branches             3876889                       # Number of branches that fetch encountered
system.switch_cpus.fetch.predictedBranches      2278051                       # Number of branches that fetch has predicted taken
system.switch_cpus.fetch.cycles               7742231                       # Number of cycles fetch has run and was not squashing or blocked
system.switch_cpus.fetch.squashCycles          552376                       # Number of cycles fetch has spent squashing
system.switch_cpus.fetch.miscStallCycles         2476                       # Number of cycles fetch has spent waiting on interrupts,or bad addresses, or out of MSHRs
system.switch_cpus.fetch.pendingTrapStallCycles        18547                       # Number of stall cycles due to pending traps
system.switch_cpus.fetch.pendingQuiesceStallCycles           26                       # Number of stall cycles due to pending quiesce instructions
system.switch_cpus.fetch.icacheWaitRetryStallCycles          326                       # Number of stall cycles due to full MSHR
system.switch_cpus.fetch.cacheLines           2508918                       # Number of cache lines fetched
system.switch_cpus.fetch.icacheSquashes         96587                       # Number of outstanding Icache misses that were squashed
system.switch_cpus.fetch.nisnDist::samples     12109767                       # Number of instructions fetched each cycle (Total)
system.switch_cpus.fetch.nisnDist::mean      2.736723                       # Number of instructions fetched each cycle (Total)
system.switch_cpus.fetch.nisnDist::stdev     3.454513                       # Number of instructions fetched each cycle (Total)
system.switch_cpus.fetch.nisnDist::underflows            0      0.00%      0.00% # Number of instructions fetched each cycle (Total)
system.switch_cpus.fetch.nisnDist::0          6745859     55.71%     55.71% # Number of instructions fetched each cycle (Total)
system.switch_cpus.fetch.nisnDist::1           389586      3.22%     58.92% # Number of instructions fetched each cycle (Total)
system.switch_cpus.fetch.nisnDist::2           254354      2.10%     61.02% # Number of instructions fetched each cycle (Total)
system.switch_cpus.fetch.nisnDist::3           324721      2.68%     63.70% # Number of instructions fetched each cycle (Total)
system.switch_cpus.fetch.nisnDist::4           412936      3.41%     67.11% # Number of instructions fetched each cycle (Total)
system.switch_cpus.fetch.nisnDist::5           395955      3.27%     70.38% # Number of instructions fetched each cycle (Total)
system.switch_cpus.fetch.nisnDist::6           327902      2.71%     73.09% # Number of instructions fetched each cycle (Total)
system.switch_cpus.fetch.nisnDist::7           397937      3.29%     76.38% # Number of instructions fetched each cycle (Total)
system.switch_cpus.fetch.nisnDist::8          2860517     23.62%    100.00% # Number of instructions fetched each cycle (Total)
system.switch_cpus.fetch.nisnDist::overflows            0      0.00%    100.00% # Number of instructions fetched each cycle (Total)
system.switch_cpus.fetch.nisnDist::min_value            0                       # Number of instructions fetched each cycle (Total)
system.switch_cpus.fetch.nisnDist::max_value            8                       # Number of instructions fetched each cycle (Total)
system.switch_cpus.fetch.nisnDist::total     12109767                       # Number of instructions fetched each cycle (Total)
system.switch_cpus.fetch.branchRate          0.307145                       # Number of branch fetches per cycle
system.switch_cpus.fetch.rate                1.329687                       # Number of inst fetches per cycle
system.switch_cpus.itb.rdAccesses                   0                       # TLB accesses on read requests
system.switch_cpus.itb.wrAccesses             2512140                       # TLB accesses on write requests
system.switch_cpus.itb.rdMisses                     0                       # TLB misses on read requests
system.switch_cpus.itb.wrMisses                 32204                       # TLB misses on write requests
system.switch_cpus.itb.walker.power_state.pwrStateResidencyTicks::UNDEFINED   7361526500                       # Cumulative time (in ticks) in various power states
system.switch_cpus.lsq0.forwLoads              330635                       # Number of loads that had data forwarded from stores
system.switch_cpus.lsq0.squashedLoads         1402457                       # Number of loads squashed
system.switch_cpus.lsq0.ignoredResponses         2897                       # Number of memory responses ignored because the instruction is squashed
system.switch_cpus.lsq0.memOrderViolation          678                       # Number of memory ordering violations
system.switch_cpus.lsq0.squashedStores         451963                       # Number of stores squashed
system.switch_cpus.lsq0.rescheduledLoads          170                       # Number of loads that were rescheduled
system.switch_cpus.lsq0.blockedByCache           2439                       # Number of times an access to memory failed due to the cache being blocked
system.switch_cpus.power_state.pwrStateResidencyTicks::OFF   7361526500                       # Cumulative time (in ticks) in various power states
system.switch_cpus.rename.squashCycles         256388                       # Number of cycles rename is squashing
system.switch_cpus.rename.idleCycles          3950416                       # Number of cycles rename is idle
system.switch_cpus.rename.blockCycles         2266850                       # Number of cycles rename is blocking
system.switch_cpus.rename.serializeStallCycles        21308                       # count of cycles rename stalledfor serializing inst
system.switch_cpus.rename.runCycles           4460460                       # Number of cycles rename is running
system.switch_cpus.rename.unblockCycles       1154323                       # Number of cycles rename is unblocking
system.switch_cpus.rename.renamedInsts       30019908                       # Number of instructions processed by rename
system.switch_cpus.rename.ROBFullEvents         19571                       # Number of times rename has blocked due to ROB full
system.switch_cpus.rename.IQFullEvents         358650                       # Number of times rename has blocked due to IQ full
system.switch_cpus.rename.LQFullEvents          28035                       # Number of times rename has blocked due to LQ full
system.switch_cpus.rename.SQFullEvents         731407                       # Number of times rename has blocked due to SQ full
system.switch_cpus.rename.fullRegistersEvents          124                       # Number of times there has been no free registers
system.switch_cpus.rename.renamedOperands     35555173                       # Number of destination operands rename has renamed
system.switch_cpus.rename.lookups            77756082                       # Number of register rename lookups that rename has made
system.switch_cpus.rename.intLookups         48133575                       # Number of integer rename lookups
system.switch_cpus.rename.fpLookups            322592                       # Number of floating rename lookups
system.switch_cpus.rename.committedMaps      22061476                       # Number of HB maps that are committed
system.switch_cpus.rename.undoneMaps         13493660                       # Number of HB maps that are undone due to squashing
system.switch_cpus.rename.serializing             749                       # count of serializing insts renamed
system.switch_cpus.rename.tempSerializing          742                       # count of temporary serializing insts renamed
system.switch_cpus.rename.skidInsts           1321455                       # count of insts added to the skid buffer
system.switch_cpus.rob.reads                 37885766                       # The number of ROB reads
system.switch_cpus.rob.writes                57491807                       # The number of ROB writes
system.switch_cpus.thread_0.numInsts         10000000                       # Number of Instructions committed
system.switch_cpus.thread_0.numOps           18817440                       # Number of Ops committed
system.switch_cpus.thread_0.numMemRefs              0                       # Number of Memory References
system.tol2bus.trans_dist::ReadResp            101949                       # Transaction distribution
system.tol2bus.trans_dist::WritebackDirty        33693                       # Transaction distribution
system.tol2bus.trans_dist::WritebackClean        73622                       # Transaction distribution
system.tol2bus.trans_dist::CleanEvict           45058                       # Transaction distribution
system.tol2bus.trans_dist::UpgradeReq             190                       # Transaction distribution
system.tol2bus.trans_dist::UpgradeResp            190                       # Transaction distribution
system.tol2bus.trans_dist::ReadExReq            15473                       # Transaction distribution
system.tol2bus.trans_dist::ReadExResp           15473                       # Transaction distribution
system.tol2bus.trans_dist::ReadCleanReq         74135                       # Transaction distribution
system.tol2bus.trans_dist::ReadSharedReq        27814                       # Transaction distribution
system.tol2bus.pkt_count_system.cpu.icache.mem_side_port::system.l2.cpu_side_port       221602                       # Packet count per connected requestor and responder (bytes)
system.tol2bus.pkt_count_system.cpu.dcache.mem_side_port::system.l2.cpu_side_port       130241                       # Packet count per connected requestor and responder (bytes)
system.tol2bus.pkt_count::total                351843                       # Packet count per connected requestor and responder (bytes)
system.tol2bus.pkt_size_system.cpu.icache.mem_side_port::system.l2.cpu_side_port      9437888                       # Cumulative packet size per connected requestor and responder (bytes)
system.tol2bus.pkt_size_system.cpu.dcache.mem_side_port::system.l2.cpu_side_port      4179008                       # Cumulative packet size per connected requestor and responder (bytes)
system.tol2bus.pkt_size::total               13616896                       # Cumulative packet size per connected requestor and responder (bytes)
system.tol2bus.snoops                           35754                       # Total snoops (count)
system.tol2bus.snoopTraffic                    766272                       # Total snoop traffic (bytes)
system.tol2bus.snoop_fanout::samples           153076                       # Request fanout histogram
system.tol2bus.snoop_fanout::mean            0.018507                       # Request fanout histogram
system.tol2bus.snoop_fanout::stdev           0.135067                       # Request fanout histogram
system.tol2bus.snoop_fanout::underflows             0      0.00%      0.00% # Request fanout histogram
system.tol2bus.snoop_fanout::0                 150249     98.15%     98.15% # Request fanout histogram
system.tol2bus.snoop_fanout::1                   2821      1.84%    100.00% # Request fanout histogram
system.tol2bus.snoop_fanout::2                      6      0.00%    100.00% # Request fanout histogram
system.tol2bus.snoop_fanout::3                      0      0.00%    100.00% # Request fanout histogram
system.tol2bus.snoop_fanout::4                      0      0.00%    100.00% # Request fanout histogram
system.tol2bus.snoop_fanout::overflows              0      0.00%    100.00% # Request fanout histogram
system.tol2bus.snoop_fanout::min_value              0                       # Request fanout histogram
system.tol2bus.snoop_fanout::max_value              2                       # Request fanout histogram
system.tol2bus.snoop_fanout::total             153076                       # Request fanout histogram
system.tol2bus.power_state.pwrStateResidencyTicks::UNDEFINED   7361526500                       # Cumulative time (in ticks) in various power states
system.tol2bus.reqLayer0.occupancy          212892500                       # Layer occupancy (ticks)
system.tol2bus.reqLayer0.utilization              3.4                       # Layer utilization (%)
system.tol2bus.respLayer0.occupancy         111224955                       # Layer occupancy (ticks)
system.tol2bus.respLayer0.utilization             1.8                       # Layer utilization (%)
system.tol2bus.respLayer1.occupancy          65045460                       # Layer occupancy (ticks)
system.tol2bus.respLayer1.utilization             1.0                       # Layer utilization (%)
system.voltage_domain.voltage                       1                       # Voltage in Volts

---------- End Simulation Statistics   ----------
