
---------- Begin Simulation Statistics ----------
final_tick                                 4638218500                       # Number of ticks from beginning of simulation (restored from checkpoints and never reset)
host_inst_rate                                 166531                       # Simulator instruction rate (inst/s)
host_mem_usage                                8608168                       # Number of bytes of host memory used
host_op_rate                                   291726                       # Simulator op (including micro ops) rate (op/s)
host_seconds                                    66.05                       # Real time elapsed on the host
host_tick_rate                               53736128                       # Simulator tick rate (ticks/s)
sim_freq                                 1000000000000                       # Frequency of simulated ticks
sim_insts                                    11000002                       # Number of instructions simulated
sim_ops                                      19269684                       # Number of ops (including micro ops) simulated
sim_seconds                                  0.003549                       # Number of seconds simulated
sim_ticks                                  3549493500                       # Number of ticks simulated
system.cpu.committedInsts                           0                       # Number of instructions committed
system.cpu.committedOps                             0                       # Number of ops (including micro ops) committed
system.cpu.idle_fraction                            0                       # Percentage of idle cycles
system.cpu.not_idle_fraction                        1                       # Percentage of non-idle cycles
system.cpu.numCycles                                0                       # number of cpu cycles simulated
system.cpu.numWorkItemsCompleted                    0                       # number of work items this cpu completed
system.cpu.numWorkItemsStarted                      0                       # number of work items this cpu started
system.cpu.num_busy_cycles                          0                       # Number of busy cycles
system.cpu.num_conditional_control_insts            0                       # number of instructions that are conditional controls
system.cpu.num_fp_alu_accesses                      0                       # Number of float alu accesses
system.cpu.num_fp_insts                             0                       # number of float instructions
system.cpu.num_fp_register_reads                    0                       # number of times the floating registers were read
system.cpu.num_fp_register_writes                   0                       # number of times the floating registers were written
system.cpu.num_func_calls                           0                       # number of times a function call or return occured
system.cpu.num_idle_cycles                          0                       # Number of idle cycles
system.cpu.num_int_alu_accesses                     0                       # Number of integer alu accesses
system.cpu.num_int_insts                            0                       # number of integer instructions
system.cpu.num_int_register_reads                   0                       # number of times the integer registers were read
system.cpu.num_int_register_writes                  0                       # number of times the integer registers were written
system.cpu.num_load_insts                           0                       # Number of load instructions
system.cpu.num_mem_refs                             0                       # number of memory refs
system.cpu.num_store_insts                          0                       # Number of store instructions
system.cpu.num_vec_alu_accesses                     0                       # Number of vector alu accesses
system.cpu.num_vec_insts                            0                       # number of vector instructions
system.cpu.num_vec_register_reads                   0                       # number of times the vector registers were read
system.cpu.num_vec_register_writes                  0                       # number of times the vector registers were written
system.cpu.op_class::No_OpClass                     0                       # Class of executed instruction
system.cpu.op_class::IntAlu                         0                       # Class of executed instruction
system.cpu.op_class::IntMult                        0                       # Class of executed instruction
system.cpu.op_class::IntDiv                         0                       # Class of executed instruction
system.cpu.op_class::FloatAdd                       0                       # Class of executed instruction
system.cpu.op_class::FloatCmp                       0                       # Class of executed instruction
system.cpu.op_class::FloatCvt                       0                       # Class of executed instruction
system.cpu.op_class::FloatMult                      0                       # Class of executed instruction
system.cpu.op_class::FloatMultAcc                   0                       # Class of executed instruction
system.cpu.op_class::FloatDiv                       0                       # Class of executed instruction
system.cpu.op_class::FloatMisc                      0                       # Class of executed instruction
system.cpu.op_class::FloatSqrt                      0                       # Class of executed instruction
system.cpu.op_class::SimdAdd                        0                       # Class of executed instruction
system.cpu.op_class::SimdAddAcc                     0                       # Class of executed instruction
system.cpu.op_class::SimdAlu                        0                       # Class of executed instruction
system.cpu.op_class::SimdCmp                        0                       # Class of executed instruction
system.cpu.op_class::SimdCvt                        0                       # Class of executed instruction
system.cpu.op_class::SimdMisc                       0                       # Class of executed instruction
system.cpu.op_class::SimdMult                       0                       # Class of executed instruction
system.cpu.op_class::SimdMultAcc                    0                       # Class of executed instruction
system.cpu.op_class::SimdShift                      0                       # Class of executed instruction
system.cpu.op_class::SimdShiftAcc                   0                       # Class of executed instruction
system.cpu.op_class::SimdDiv                        0                       # Class of executed instruction
system.cpu.op_class::SimdSqrt                       0                       # Class of executed instruction
system.cpu.op_class::SimdFloatAdd                   0                       # Class of executed instruction
system.cpu.op_class::SimdFloatAlu                   0                       # Class of executed instruction
system.cpu.op_class::SimdFloatCmp                   0                       # Class of executed instruction
system.cpu.op_class::SimdFloatCvt                   0                       # Class of executed instruction
system.cpu.op_class::SimdFloatDiv                   0                       # Class of executed instruction
system.cpu.op_class::SimdFloatMisc                  0                       # Class of executed instruction
system.cpu.op_class::SimdFloatMult                  0                       # Class of executed instruction
system.cpu.op_class::SimdFloatMultAcc               0                       # Class of executed instruction
system.cpu.op_class::SimdFloatSqrt                  0                       # Class of executed instruction
system.cpu.op_class::SimdReduceAdd                  0                       # Class of executed instruction
system.cpu.op_class::SimdReduceAlu                  0                       # Class of executed instruction
system.cpu.op_class::SimdReduceCmp                  0                       # Class of executed instruction
system.cpu.op_class::SimdFloatReduceAdd             0                       # Class of executed instruction
system.cpu.op_class::SimdFloatReduceCmp             0                       # Class of executed instruction
system.cpu.op_class::SimdAes                        0                       # Class of executed instruction
system.cpu.op_class::SimdAesMix                     0                       # Class of executed instruction
system.cpu.op_class::SimdSha1Hash                   0                       # Class of executed instruction
system.cpu.op_class::SimdSha1Hash2                  0                       # Class of executed instruction
system.cpu.op_class::SimdSha256Hash                 0                       # Class of executed instruction
system.cpu.op_class::SimdSha256Hash2                0                       # Class of executed instruction
system.cpu.op_class::SimdShaSigma2                  0                       # Class of executed instruction
system.cpu.op_class::SimdShaSigma3                  0                       # Class of executed instruction
system.cpu.op_class::SimdPredAlu                    0                       # Class of executed instruction
system.cpu.op_class::MemRead                        0                       # Class of executed instruction
system.cpu.op_class::MemWrite                       0                       # Class of executed instruction
system.cpu.op_class::FloatMemRead                   0                       # Class of executed instruction
system.cpu.op_class::FloatMemWrite                  0                       # Class of executed instruction
system.cpu.op_class::IprAccess                      0                       # Class of executed instruction
system.cpu.op_class::InstPrefetch                   0                       # Class of executed instruction
system.cpu.op_class::total                          0                       # Class of executed instruction
system.cpu.workload.numSyscalls                     0                       # Number of system calls
system.membus.snoop_filter.hit_multi_requests            0                       # Number of requests hitting in the snoop filter with multiple (>1) holders of the requested data.
system.membus.snoop_filter.hit_multi_snoops            0                       # Number of snoops hitting in the snoop filter with multiple (>1) holders of the requested data.
system.membus.snoop_filter.hit_single_requests          311                       # Number of requests hitting in the snoop filter with a single holder of the requested data.
system.membus.snoop_filter.hit_single_snoops            0                       # Number of snoops hitting in the snoop filter with a single holder of the requested data.
system.membus.snoop_filter.tot_requests          1167                       # Total number of requests made to the snoop filter.
system.membus.snoop_filter.tot_snoops               0                       # Total number of snoops made to the snoop filter.
system.switch_cpus.cc_regfile_reads          12175077                       # number of cc regfile reads
system.switch_cpus.cc_regfile_writes         10301210                       # number of cc regfile writes
system.switch_cpus.committedInsts            10000001                       # Number of Instructions Simulated
system.switch_cpus.committedOps              17415167                       # Number of Ops (including micro ops) Simulated
system.switch_cpus.cpi                       0.709899                       # CPI: Cycles Per Instruction
system.switch_cpus.cpi_total                 0.709899                       # CPI: Total CPI of All Threads
system.switch_cpus.fp_regfile_reads             42380                       # number of floating regfile reads
system.switch_cpus.fp_regfile_writes            52110                       # number of floating regfile writes
system.switch_cpus.idleCycles                   64318                       # Total number of cycles that the CPU has spent unscheduled due to idling
system.switch_cpus.iew.branchMispredicts       226795                       # Number of branch mispredicts detected at execute
system.switch_cpus.iew.exec_branches          1938734                       # Number of branches executed
system.switch_cpus.iew.exec_nop                     0                       # number of nop insts executed
system.switch_cpus.iew.exec_rate             2.939367                       # Inst execution rate
system.switch_cpus.iew.exec_refs              3774270                       # number of memory reference insts executed
system.switch_cpus.iew.exec_stores            1204644                       # Number of stores executed
system.switch_cpus.iew.exec_swp                     0                       # number of swp insts executed
system.switch_cpus.iew.iewBlockCycles          633051                       # Number of cycles IEW is blocking
system.switch_cpus.iew.iewDispLoadInsts       2780914                       # Number of dispatched load instructions
system.switch_cpus.iew.iewDispNonSpecInsts            0                       # Number of dispatched non-speculative instructions
system.switch_cpus.iew.iewDispSquashedInsts        48931                       # Number of squashed instructions skipped by dispatch
system.switch_cpus.iew.iewDispStoreInsts      1386965                       # Number of dispatched store instructions
system.switch_cpus.iew.iewDispatchedInsts     23420524                       # Number of instructions dispatched to IQ
system.switch_cpus.iew.iewExecLoadInsts       2569626                       # Number of load instructions executed
system.switch_cpus.iew.iewExecSquashedInsts       522904                       # Number of squashed instructions skipped in execute
system.switch_cpus.iew.iewExecutedInsts      20866527                       # Number of executed instructions
system.switch_cpus.iew.iewIQFullEvents              0                       # Number of times the IQ has become full, causing a stall
system.switch_cpus.iew.iewIdleCycles                0                       # Number of cycles IEW is idle
system.switch_cpus.iew.iewLSQFullEvents          1453                       # Number of times the LSQ has become full, causing a stall
system.switch_cpus.iew.iewSquashCycles         206569                       # Number of cycles IEW is squashing
system.switch_cpus.iew.iewUnblockCycles          1453                       # Number of cycles IEW is unblocking
system.switch_cpus.iew.memOrderViolationEvents         1634                       # Number of memory order violations
system.switch_cpus.iew.predictedNotTakenIncorrect        99536                       # Number of branches that were predicted not taken incorrectly
system.switch_cpus.iew.predictedTakenIncorrect       127259                       # Number of branches that were predicted taken incorrectly
system.switch_cpus.iew.wb_consumers          23558622                       # num instructions consuming a value
system.switch_cpus.iew.wb_count              20651264                       # cumulative count of insts written-back
system.switch_cpus.iew.wb_fanout             0.637257                       # average fanout of values written-back
system.switch_cpus.iew.wb_producers          15012894                       # num instructions producing a value
system.switch_cpus.iew.wb_rate               2.909044                       # insts written-back per cycle
system.switch_cpus.iew.wb_sent               20755647                       # cumulative count of insts sent to commit
system.switch_cpus.int_regfile_reads         31679037                       # number of integer regfile reads
system.switch_cpus.int_regfile_writes        17755235                       # number of integer regfile writes
system.switch_cpus.ipc                       1.408652                       # IPC: Instructions Per Cycle
system.switch_cpus.ipc_total                 1.408652                       # IPC: Total IPC of All Threads
system.switch_cpus.iq.FU_type_0::No_OpClass        44636      0.21%      0.21% # Type of FU issued
system.switch_cpus.iq.FU_type_0::IntAlu      17184400     80.34%     80.55% # Type of FU issued
system.switch_cpus.iq.FU_type_0::IntMult       249497      1.17%     81.72% # Type of FU issued
system.switch_cpus.iq.FU_type_0::IntDiv          2429      0.01%     81.73% # Type of FU issued
system.switch_cpus.iq.FU_type_0::FloatAdd          614      0.00%     81.73% # Type of FU issued
system.switch_cpus.iq.FU_type_0::FloatCmp            0      0.00%     81.73% # Type of FU issued
system.switch_cpus.iq.FU_type_0::FloatCvt            0      0.00%     81.73% # Type of FU issued
system.switch_cpus.iq.FU_type_0::FloatMult            0      0.00%     81.73% # Type of FU issued
system.switch_cpus.iq.FU_type_0::FloatMultAcc            0      0.00%     81.73% # Type of FU issued
system.switch_cpus.iq.FU_type_0::FloatDiv            0      0.00%     81.73% # Type of FU issued
system.switch_cpus.iq.FU_type_0::FloatMisc            0      0.00%     81.73% # Type of FU issued
system.switch_cpus.iq.FU_type_0::FloatSqrt            0      0.00%     81.73% # Type of FU issued
system.switch_cpus.iq.FU_type_0::SimdAdd            0      0.00%     81.73% # Type of FU issued
system.switch_cpus.iq.FU_type_0::SimdAddAcc            0      0.00%     81.73% # Type of FU issued
system.switch_cpus.iq.FU_type_0::SimdAlu          102      0.00%     81.73% # Type of FU issued
system.switch_cpus.iq.FU_type_0::SimdCmp            0      0.00%     81.73% # Type of FU issued
system.switch_cpus.iq.FU_type_0::SimdCvt            0      0.00%     81.73% # Type of FU issued
system.switch_cpus.iq.FU_type_0::SimdMisc         2798      0.01%     81.74% # Type of FU issued
system.switch_cpus.iq.FU_type_0::SimdMult            0      0.00%     81.74% # Type of FU issued
system.switch_cpus.iq.FU_type_0::SimdMultAcc            0      0.00%     81.74% # Type of FU issued
system.switch_cpus.iq.FU_type_0::SimdShift            0      0.00%     81.74% # Type of FU issued
system.switch_cpus.iq.FU_type_0::SimdShiftAcc            0      0.00%     81.74% # Type of FU issued
system.switch_cpus.iq.FU_type_0::SimdDiv            0      0.00%     81.74% # Type of FU issued
system.switch_cpus.iq.FU_type_0::SimdSqrt            0      0.00%     81.74% # Type of FU issued
system.switch_cpus.iq.FU_type_0::SimdFloatAdd            0      0.00%     81.74% # Type of FU issued
system.switch_cpus.iq.FU_type_0::SimdFloatAlu            0      0.00%     81.74% # Type of FU issued
system.switch_cpus.iq.FU_type_0::SimdFloatCmp            0      0.00%     81.74% # Type of FU issued
system.switch_cpus.iq.FU_type_0::SimdFloatCvt            0      0.00%     81.74% # Type of FU issued
system.switch_cpus.iq.FU_type_0::SimdFloatDiv            0      0.00%     81.74% # Type of FU issued
system.switch_cpus.iq.FU_type_0::SimdFloatMisc            0      0.00%     81.74% # Type of FU issued
system.switch_cpus.iq.FU_type_0::SimdFloatMult            0      0.00%     81.74% # Type of FU issued
system.switch_cpus.iq.FU_type_0::SimdFloatMultAcc            0      0.00%     81.74% # Type of FU issued
system.switch_cpus.iq.FU_type_0::SimdFloatSqrt            0      0.00%     81.74% # Type of FU issued
system.switch_cpus.iq.FU_type_0::SimdReduceAdd            0      0.00%     81.74% # Type of FU issued
system.switch_cpus.iq.FU_type_0::SimdReduceAlu            0      0.00%     81.74% # Type of FU issued
system.switch_cpus.iq.FU_type_0::SimdReduceCmp            0      0.00%     81.74% # Type of FU issued
system.switch_cpus.iq.FU_type_0::SimdFloatReduceAdd            0      0.00%     81.74% # Type of FU issued
system.switch_cpus.iq.FU_type_0::SimdFloatReduceCmp            0      0.00%     81.74% # Type of FU issued
system.switch_cpus.iq.FU_type_0::SimdAes            0      0.00%     81.74% # Type of FU issued
system.switch_cpus.iq.FU_type_0::SimdAesMix            0      0.00%     81.74% # Type of FU issued
system.switch_cpus.iq.FU_type_0::SimdSha1Hash            0      0.00%     81.74% # Type of FU issued
system.switch_cpus.iq.FU_type_0::SimdSha1Hash2            0      0.00%     81.74% # Type of FU issued
system.switch_cpus.iq.FU_type_0::SimdSha256Hash            0      0.00%     81.74% # Type of FU issued
system.switch_cpus.iq.FU_type_0::SimdSha256Hash2            0      0.00%     81.74% # Type of FU issued
system.switch_cpus.iq.FU_type_0::SimdShaSigma2            0      0.00%     81.74% # Type of FU issued
system.switch_cpus.iq.FU_type_0::SimdShaSigma3            0      0.00%     81.74% # Type of FU issued
system.switch_cpus.iq.FU_type_0::SimdPredAlu            0      0.00%     81.74% # Type of FU issued
system.switch_cpus.iq.FU_type_0::MemRead      2604587     12.18%     93.92% # Type of FU issued
system.switch_cpus.iq.FU_type_0::MemWrite      1207610      5.65%     99.57% # Type of FU issued
system.switch_cpus.iq.FU_type_0::FloatMemRead        55493      0.26%     99.83% # Type of FU issued
system.switch_cpus.iq.FU_type_0::FloatMemWrite        37272      0.17%    100.00% # Type of FU issued
system.switch_cpus.iq.FU_type_0::IprAccess            0      0.00%    100.00% # Type of FU issued
system.switch_cpus.iq.FU_type_0::InstPrefetch            0      0.00%    100.00% # Type of FU issued
system.switch_cpus.iq.FU_type_0::total       21389438                       # Type of FU issued
system.switch_cpus.iq.fp_alu_accesses          105539                       # Number of floating point alu accesses
system.switch_cpus.iq.fp_inst_queue_reads       203147                       # Number of floating instruction queue reads
system.switch_cpus.iq.fp_inst_queue_wakeup_accesses        85961                       # Number of floating instruction queue wakeup accesses
system.switch_cpus.iq.fp_inst_queue_writes       124312                       # Number of floating instruction queue writes
system.switch_cpus.iq.fu_busy_cnt              573936                       # FU busy when requested
system.switch_cpus.iq.fu_busy_rate           0.026833                       # FU busy rate (busy events/executed inst)
system.switch_cpus.iq.fu_full::No_OpClass            0      0.00%      0.00% # attempts to use FU when none available
system.switch_cpus.iq.fu_full::IntAlu          524906     91.46%     91.46% # attempts to use FU when none available
system.switch_cpus.iq.fu_full::IntMult              0      0.00%     91.46% # attempts to use FU when none available
system.switch_cpus.iq.fu_full::IntDiv               0      0.00%     91.46% # attempts to use FU when none available
system.switch_cpus.iq.fu_full::FloatAdd             0      0.00%     91.46% # attempts to use FU when none available
system.switch_cpus.iq.fu_full::FloatCmp             0      0.00%     91.46% # attempts to use FU when none available
system.switch_cpus.iq.fu_full::FloatCvt             0      0.00%     91.46% # attempts to use FU when none available
system.switch_cpus.iq.fu_full::FloatMult            0      0.00%     91.46% # attempts to use FU when none available
system.switch_cpus.iq.fu_full::FloatMultAcc            0      0.00%     91.46% # attempts to use FU when none available
system.switch_cpus.iq.fu_full::FloatDiv             0      0.00%     91.46% # attempts to use FU when none available
system.switch_cpus.iq.fu_full::FloatMisc            0      0.00%     91.46% # attempts to use FU when none available
system.switch_cpus.iq.fu_full::FloatSqrt            0      0.00%     91.46% # attempts to use FU when none available
system.switch_cpus.iq.fu_full::SimdAdd              0      0.00%     91.46% # attempts to use FU when none available
system.switch_cpus.iq.fu_full::SimdAddAcc            0      0.00%     91.46% # attempts to use FU when none available
system.switch_cpus.iq.fu_full::SimdAlu              0      0.00%     91.46% # attempts to use FU when none available
system.switch_cpus.iq.fu_full::SimdCmp              0      0.00%     91.46% # attempts to use FU when none available
system.switch_cpus.iq.fu_full::SimdCvt              0      0.00%     91.46% # attempts to use FU when none available
system.switch_cpus.iq.fu_full::SimdMisc             0      0.00%     91.46% # attempts to use FU when none available
system.switch_cpus.iq.fu_full::SimdMult             0      0.00%     91.46% # attempts to use FU when none available
system.switch_cpus.iq.fu_full::SimdMultAcc            0      0.00%     91.46% # attempts to use FU when none available
system.switch_cpus.iq.fu_full::SimdShift            0      0.00%     91.46% # attempts to use FU when none available
system.switch_cpus.iq.fu_full::SimdShiftAcc            0      0.00%     91.46% # attempts to use FU when none available
system.switch_cpus.iq.fu_full::SimdDiv              0      0.00%     91.46% # attempts to use FU when none available
system.switch_cpus.iq.fu_full::SimdSqrt             0      0.00%     91.46% # attempts to use FU when none available
system.switch_cpus.iq.fu_full::SimdFloatAdd            0      0.00%     91.46% # attempts to use FU when none available
system.switch_cpus.iq.fu_full::SimdFloatAlu            0      0.00%     91.46% # attempts to use FU when none available
system.switch_cpus.iq.fu_full::SimdFloatCmp            0      0.00%     91.46% # attempts to use FU when none available
system.switch_cpus.iq.fu_full::SimdFloatCvt            0      0.00%     91.46% # attempts to use FU when none available
system.switch_cpus.iq.fu_full::SimdFloatDiv            0      0.00%     91.46% # attempts to use FU when none available
system.switch_cpus.iq.fu_full::SimdFloatMisc            0      0.00%     91.46% # attempts to use FU when none available
system.switch_cpus.iq.fu_full::SimdFloatMult            0      0.00%     91.46% # attempts to use FU when none available
system.switch_cpus.iq.fu_full::SimdFloatMultAcc            0      0.00%     91.46% # attempts to use FU when none available
system.switch_cpus.iq.fu_full::SimdFloatSqrt            0      0.00%     91.46% # attempts to use FU when none available
system.switch_cpus.iq.fu_full::SimdReduceAdd            0      0.00%     91.46% # attempts to use FU when none available
system.switch_cpus.iq.fu_full::SimdReduceAlu            0      0.00%     91.46% # attempts to use FU when none available
system.switch_cpus.iq.fu_full::SimdReduceCmp            0      0.00%     91.46% # attempts to use FU when none available
system.switch_cpus.iq.fu_full::SimdFloatReduceAdd            0      0.00%     91.46% # attempts to use FU when none available
system.switch_cpus.iq.fu_full::SimdFloatReduceCmp            0      0.00%     91.46% # attempts to use FU when none available
system.switch_cpus.iq.fu_full::SimdAes              0      0.00%     91.46% # attempts to use FU when none available
system.switch_cpus.iq.fu_full::SimdAesMix            0      0.00%     91.46% # attempts to use FU when none available
system.switch_cpus.iq.fu_full::SimdSha1Hash            0      0.00%     91.46% # attempts to use FU when none available
system.switch_cpus.iq.fu_full::SimdSha1Hash2            0      0.00%     91.46% # attempts to use FU when none available
system.switch_cpus.iq.fu_full::SimdSha256Hash            0      0.00%     91.46% # attempts to use FU when none available
system.switch_cpus.iq.fu_full::SimdSha256Hash2            0      0.00%     91.46% # attempts to use FU when none available
system.switch_cpus.iq.fu_full::SimdShaSigma2            0      0.00%     91.46% # attempts to use FU when none available
system.switch_cpus.iq.fu_full::SimdShaSigma3            0      0.00%     91.46% # attempts to use FU when none available
system.switch_cpus.iq.fu_full::SimdPredAlu            0      0.00%     91.46% # attempts to use FU when none available
system.switch_cpus.iq.fu_full::MemRead          25714      4.48%     95.94% # attempts to use FU when none available
system.switch_cpus.iq.fu_full::MemWrite         14478      2.52%     98.46% # attempts to use FU when none available
system.switch_cpus.iq.fu_full::FloatMemRead         5752      1.00%     99.46% # attempts to use FU when none available
system.switch_cpus.iq.fu_full::FloatMemWrite         3086      0.54%    100.00% # attempts to use FU when none available
system.switch_cpus.iq.fu_full::IprAccess            0      0.00%    100.00% # attempts to use FU when none available
system.switch_cpus.iq.fu_full::InstPrefetch            0      0.00%    100.00% # attempts to use FU when none available
system.switch_cpus.iq.int_alu_accesses       21813199                       # Number of integer alu accesses
system.switch_cpus.iq.int_inst_queue_reads     50380167                       # Number of integer instruction queue reads
system.switch_cpus.iq.int_inst_queue_wakeup_accesses     20565303                       # Number of integer instruction queue wakeup accesses
system.switch_cpus.iq.int_inst_queue_writes     29303090                       # Number of integer instruction queue writes
system.switch_cpus.iq.iqInstsAdded           23420524                       # Number of instructions added to the IQ (excludes non-spec)
system.switch_cpus.iq.iqInstsIssued          21389438                       # Number of instructions issued
system.switch_cpus.iq.iqSquashedInstsExamined      6005274                       # Number of squashed instructions iterated over during squash; mainly for profiling
system.switch_cpus.iq.iqSquashedInstsIssued       195840                       # Number of squashed instructions issued
system.switch_cpus.iq.iqSquashedOperandsExamined      8579551                       # Number of squashed operands that are examined and possibly removed from graph
system.switch_cpus.iq.issued_per_cycle::samples      7034669                       # Number of insts issued each cycle
system.switch_cpus.iq.issued_per_cycle::mean     3.040575                       # Number of insts issued each cycle
system.switch_cpus.iq.issued_per_cycle::stdev     2.600729                       # Number of insts issued each cycle
system.switch_cpus.iq.issued_per_cycle::underflows            0      0.00%      0.00% # Number of insts issued each cycle
system.switch_cpus.iq.issued_per_cycle::0      2019745     28.71%     28.71% # Number of insts issued each cycle
system.switch_cpus.iq.issued_per_cycle::1       574171      8.16%     36.87% # Number of insts issued each cycle
system.switch_cpus.iq.issued_per_cycle::2       698284      9.93%     46.80% # Number of insts issued each cycle
system.switch_cpus.iq.issued_per_cycle::3       691625      9.83%     56.63% # Number of insts issued each cycle
system.switch_cpus.iq.issued_per_cycle::4       627733      8.92%     65.55% # Number of insts issued each cycle
system.switch_cpus.iq.issued_per_cycle::5       732453     10.41%     75.97% # Number of insts issued each cycle
system.switch_cpus.iq.issued_per_cycle::6       893835     12.71%     88.67% # Number of insts issued each cycle
system.switch_cpus.iq.issued_per_cycle::7       566967      8.06%     96.73% # Number of insts issued each cycle
system.switch_cpus.iq.issued_per_cycle::8       229856      3.27%    100.00% # Number of insts issued each cycle
system.switch_cpus.iq.issued_per_cycle::overflows            0      0.00%    100.00% # Number of insts issued each cycle
system.switch_cpus.iq.issued_per_cycle::min_value            0                       # Number of insts issued each cycle
system.switch_cpus.iq.issued_per_cycle::max_value            8                       # Number of insts issued each cycle
system.switch_cpus.iq.issued_per_cycle::total      7034669                       # Number of insts issued each cycle
system.switch_cpus.iq.rate                   3.013027                       # Inst issue rate
system.switch_cpus.iq.vec_alu_accesses              0                       # Number of vector alu accesses
system.switch_cpus.iq.vec_inst_queue_reads            0                       # Number of vector instruction queue reads
system.switch_cpus.iq.vec_inst_queue_wakeup_accesses            0                       # Number of vector instruction queue wakeup accesses
system.switch_cpus.iq.vec_inst_queue_writes            0                       # Number of vector instruction queue writes
system.switch_cpus.memDep0.conflictingLoads       175311                       # Number of conflicting loads.
system.switch_cpus.memDep0.conflictingStores       135683                       # Number of conflicting stores.
system.switch_cpus.memDep0.insertedLoads      2780914                       # Number of loads inserted to the mem dependence unit.
system.switch_cpus.memDep0.insertedStores      1386965                       # Number of stores inserted to the mem dependence unit.
system.switch_cpus.misc_regfile_reads         8002117                       # number of misc regfile reads
system.switch_cpus.numCycles                  7098987                       # number of cpu cycles simulated
system.switch_cpus.numWorkItemsCompleted            0                       # number of work items this cpu completed
system.switch_cpus.numWorkItemsStarted              0                       # number of work items this cpu started
system.switch_cpus.timesIdled                    1564                       # Number of times that the entire CPU went into an idle state and unscheduled itself
system.tol2bus.snoop_filter.hit_multi_requests            1                       # Number of requests hitting in the snoop filter with multiple (>1) holders of the requested data.
system.tol2bus.snoop_filter.hit_multi_snoops            0                       # Number of snoops hitting in the snoop filter with multiple (>1) holders of the requested data.
system.tol2bus.snoop_filter.hit_single_requests         4666                       # Number of requests hitting in the snoop filter with a single holder of the requested data.
system.tol2bus.snoop_filter.hit_single_snoops            4                       # Number of snoops hitting in the snoop filter with a single holder of the requested data.
system.tol2bus.snoop_filter.tot_requests         9351                       # Total number of requests made to the snoop filter.
system.tol2bus.snoop_filter.tot_snoops              4                       # Total number of snoops made to the snoop filter.
system.clk_domain.clock                          1000                       # Clock period in ticks
system.cpu.branchPred.lookups                       0                       # Number of BP lookups
system.cpu.branchPred.condPredicted                 0                       # Number of conditional branches predicted
system.cpu.branchPred.condIncorrect                 0                       # Number of conditional branches incorrect
system.cpu.branchPred.BTBLookups                    0                       # Number of BTB lookups
system.cpu.branchPred.BTBHits                       0                       # Number of BTB hits
system.cpu.branchPred.BTBHitPct                   nan                       # BTB Hit Percentage
system.cpu.branchPred.RASUsed                       0                       # Number of times the RAS was used to get a target.
system.cpu.branchPred.RASIncorrect                  0                       # Number of incorrect RAS predictions.
system.cpu.branchPred.indirectLookups               0                       # Number of indirect predictor lookups.
system.cpu.branchPred.indirectHits                  0                       # Number of indirect target hits.
system.cpu.branchPred.indirectMisses                0                       # Number of indirect misses.
system.cpu.branchPred.indirectMispredicted            0                       # Number of mispredicted indirect branches.
system.cpu.dcache.demand_hits::.switch_cpus.data      3492807                       # number of demand (read+write) hits
system.cpu.dcache.demand_hits::total          3492807                       # number of demand (read+write) hits
system.cpu.dcache.overall_hits::.switch_cpus.data      3492807                       # number of overall hits
system.cpu.dcache.overall_hits::total         3492807                       # number of overall hits
system.cpu.dcache.demand_misses::.switch_cpus.data          134                       # number of demand (read+write) misses
system.cpu.dcache.demand_misses::total            134                       # number of demand (read+write) misses
system.cpu.dcache.overall_misses::.switch_cpus.data          134                       # number of overall misses
system.cpu.dcache.overall_misses::total           134                       # number of overall misses
system.cpu.dcache.demand_miss_latency::.switch_cpus.data      7326500                       # number of demand (read+write) miss cycles
system.cpu.dcache.demand_miss_latency::total      7326500                       # number of demand (read+write) miss cycles
system.cpu.dcache.overall_miss_latency::.switch_cpus.data      7326500                       # number of overall miss cycles
system.cpu.dcache.overall_miss_latency::total      7326500                       # number of overall miss cycles
system.cpu.dcache.demand_accesses::.switch_cpus.data      3492941                       # number of demand (read+write) accesses
system.cpu.dcache.demand_accesses::total      3492941                       # number of demand (read+write) accesses
system.cpu.dcache.overall_accesses::.switch_cpus.data      3492941                       # number of overall (read+write) accesses
system.cpu.dcache.overall_accesses::total      3492941                       # number of overall (read+write) accesses
system.cpu.dcache.demand_miss_rate::.switch_cpus.data     0.000038                       # miss rate for demand accesses
system.cpu.dcache.demand_miss_rate::total     0.000038                       # miss rate for demand accesses
system.cpu.dcache.overall_miss_rate::.switch_cpus.data     0.000038                       # miss rate for overall accesses
system.cpu.dcache.overall_miss_rate::total     0.000038                       # miss rate for overall accesses
system.cpu.dcache.demand_avg_miss_latency::.switch_cpus.data 54675.373134                       # average overall miss latency
system.cpu.dcache.demand_avg_miss_latency::total 54675.373134                       # average overall miss latency
system.cpu.dcache.overall_avg_miss_latency::.switch_cpus.data 54675.373134                       # average overall miss latency
system.cpu.dcache.overall_avg_miss_latency::total 54675.373134                       # average overall miss latency
system.cpu.dcache.blocked_cycles::no_mshrs            0                       # number of cycles access was blocked
system.cpu.dcache.blocked_cycles::no_targets            0                       # number of cycles access was blocked
system.cpu.dcache.blocked::no_mshrs                 0                       # number of cycles access was blocked
system.cpu.dcache.blocked::no_targets               0                       # number of cycles access was blocked
system.cpu.dcache.avg_blocked_cycles::no_mshrs          nan                       # average number of cycles each access was blocked
system.cpu.dcache.avg_blocked_cycles::no_targets          nan                       # average number of cycles each access was blocked
system.cpu.dcache.writebacks::.writebacks          107                       # number of writebacks
system.cpu.dcache.writebacks::total               107                       # number of writebacks
system.cpu.dcache.demand_mshr_hits::.switch_cpus.data           17                       # number of demand (read+write) MSHR hits
system.cpu.dcache.demand_mshr_hits::total           17                       # number of demand (read+write) MSHR hits
system.cpu.dcache.overall_mshr_hits::.switch_cpus.data           17                       # number of overall MSHR hits
system.cpu.dcache.overall_mshr_hits::total           17                       # number of overall MSHR hits
system.cpu.dcache.demand_mshr_misses::.switch_cpus.data          117                       # number of demand (read+write) MSHR misses
system.cpu.dcache.demand_mshr_misses::total          117                       # number of demand (read+write) MSHR misses
system.cpu.dcache.overall_mshr_misses::.switch_cpus.data          117                       # number of overall MSHR misses
system.cpu.dcache.overall_mshr_misses::total          117                       # number of overall MSHR misses
system.cpu.dcache.demand_mshr_miss_latency::.switch_cpus.data      6476500                       # number of demand (read+write) MSHR miss cycles
system.cpu.dcache.demand_mshr_miss_latency::total      6476500                       # number of demand (read+write) MSHR miss cycles
system.cpu.dcache.overall_mshr_miss_latency::.switch_cpus.data      6476500                       # number of overall MSHR miss cycles
system.cpu.dcache.overall_mshr_miss_latency::total      6476500                       # number of overall MSHR miss cycles
system.cpu.dcache.demand_mshr_miss_rate::.switch_cpus.data     0.000033                       # mshr miss rate for demand accesses
system.cpu.dcache.demand_mshr_miss_rate::total     0.000033                       # mshr miss rate for demand accesses
system.cpu.dcache.overall_mshr_miss_rate::.switch_cpus.data     0.000033                       # mshr miss rate for overall accesses
system.cpu.dcache.overall_mshr_miss_rate::total     0.000033                       # mshr miss rate for overall accesses
system.cpu.dcache.demand_avg_mshr_miss_latency::.switch_cpus.data 55354.700855                       # average overall mshr miss latency
system.cpu.dcache.demand_avg_mshr_miss_latency::total 55354.700855                       # average overall mshr miss latency
system.cpu.dcache.overall_avg_mshr_miss_latency::.switch_cpus.data 55354.700855                       # average overall mshr miss latency
system.cpu.dcache.overall_avg_mshr_miss_latency::total 55354.700855                       # average overall mshr miss latency
system.cpu.dcache.replacements                    117                       # number of replacements
system.cpu.dcache.ReadReq_hits::.switch_cpus.data      2431077                       # number of ReadReq hits
system.cpu.dcache.ReadReq_hits::total         2431077                       # number of ReadReq hits
system.cpu.dcache.ReadReq_misses::.switch_cpus.data           52                       # number of ReadReq misses
system.cpu.dcache.ReadReq_misses::total            52                       # number of ReadReq misses
system.cpu.dcache.ReadReq_miss_latency::.switch_cpus.data      1636500                       # number of ReadReq miss cycles
system.cpu.dcache.ReadReq_miss_latency::total      1636500                       # number of ReadReq miss cycles
system.cpu.dcache.ReadReq_accesses::.switch_cpus.data      2431129                       # number of ReadReq accesses(hits+misses)
system.cpu.dcache.ReadReq_accesses::total      2431129                       # number of ReadReq accesses(hits+misses)
system.cpu.dcache.ReadReq_miss_rate::.switch_cpus.data     0.000021                       # miss rate for ReadReq accesses
system.cpu.dcache.ReadReq_miss_rate::total     0.000021                       # miss rate for ReadReq accesses
system.cpu.dcache.ReadReq_avg_miss_latency::.switch_cpus.data 31471.153846                       # average ReadReq miss latency
system.cpu.dcache.ReadReq_avg_miss_latency::total 31471.153846                       # average ReadReq miss latency
system.cpu.dcache.ReadReq_mshr_hits::.switch_cpus.data           17                       # number of ReadReq MSHR hits
system.cpu.dcache.ReadReq_mshr_hits::total           17                       # number of ReadReq MSHR hits
system.cpu.dcache.ReadReq_mshr_misses::.switch_cpus.data           35                       # number of ReadReq MSHR misses
system.cpu.dcache.ReadReq_mshr_misses::total           35                       # number of ReadReq MSHR misses
system.cpu.dcache.ReadReq_mshr_miss_latency::.switch_cpus.data       868500                       # number of ReadReq MSHR miss cycles
system.cpu.dcache.ReadReq_mshr_miss_latency::total       868500                       # number of ReadReq MSHR miss cycles
system.cpu.dcache.ReadReq_mshr_miss_rate::.switch_cpus.data     0.000014                       # mshr miss rate for ReadReq accesses
system.cpu.dcache.ReadReq_mshr_miss_rate::total     0.000014                       # mshr miss rate for ReadReq accesses
system.cpu.dcache.ReadReq_avg_mshr_miss_latency::.switch_cpus.data 24814.285714                       # average ReadReq mshr miss latency
system.cpu.dcache.ReadReq_avg_mshr_miss_latency::total 24814.285714                       # average ReadReq mshr miss latency
system.cpu.dcache.WriteReq_hits::.switch_cpus.data      1061730                       # number of WriteReq hits
system.cpu.dcache.WriteReq_hits::total        1061730                       # number of WriteReq hits
system.cpu.dcache.WriteReq_misses::.switch_cpus.data           82                       # number of WriteReq misses
system.cpu.dcache.WriteReq_misses::total           82                       # number of WriteReq misses
system.cpu.dcache.WriteReq_miss_latency::.switch_cpus.data      5690000                       # number of WriteReq miss cycles
system.cpu.dcache.WriteReq_miss_latency::total      5690000                       # number of WriteReq miss cycles
system.cpu.dcache.WriteReq_accesses::.switch_cpus.data      1061812                       # number of WriteReq accesses(hits+misses)
system.cpu.dcache.WriteReq_accesses::total      1061812                       # number of WriteReq accesses(hits+misses)
system.cpu.dcache.WriteReq_miss_rate::.switch_cpus.data     0.000077                       # miss rate for WriteReq accesses
system.cpu.dcache.WriteReq_miss_rate::total     0.000077                       # miss rate for WriteReq accesses
system.cpu.dcache.WriteReq_avg_miss_latency::.switch_cpus.data 69390.243902                       # average WriteReq miss latency
system.cpu.dcache.WriteReq_avg_miss_latency::total 69390.243902                       # average WriteReq miss latency
system.cpu.dcache.WriteReq_mshr_misses::.switch_cpus.data           82                       # number of WriteReq MSHR misses
system.cpu.dcache.WriteReq_mshr_misses::total           82                       # number of WriteReq MSHR misses
system.cpu.dcache.WriteReq_mshr_miss_latency::.switch_cpus.data      5608000                       # number of WriteReq MSHR miss cycles
system.cpu.dcache.WriteReq_mshr_miss_latency::total      5608000                       # number of WriteReq MSHR miss cycles
system.cpu.dcache.WriteReq_mshr_miss_rate::.switch_cpus.data     0.000077                       # mshr miss rate for WriteReq accesses
system.cpu.dcache.WriteReq_mshr_miss_rate::total     0.000077                       # mshr miss rate for WriteReq accesses
system.cpu.dcache.WriteReq_avg_mshr_miss_latency::.switch_cpus.data 68390.243902                       # average WriteReq mshr miss latency
system.cpu.dcache.WriteReq_avg_mshr_miss_latency::total 68390.243902                       # average WriteReq mshr miss latency
system.cpu.dcache.power_state.pwrStateResidencyTicks::UNDEFINED   4638218500                       # Cumulative time (in ticks) in various power states
system.cpu.dcache.tags.tagsinuse                 1024                       # Cycle average of tags in use
system.cpu.dcache.tags.total_refs             3706983                       # Total number of references to valid blocks.
system.cpu.dcache.tags.sampled_refs              1141                       # Sample count of references to valid blocks.
system.cpu.dcache.tags.avg_refs           3248.889571                       # Average number of references to valid blocks.
system.cpu.dcache.tags.warmup_cycle                 0                       # Cycle when the warmup percentage was hit.
system.cpu.dcache.tags.occ_blocks::.cpu.data   940.384949                       # Average occupied blocks per requestor
system.cpu.dcache.tags.occ_blocks::.switch_cpus.data    83.615051                       # Average occupied blocks per requestor
system.cpu.dcache.tags.occ_percent::.cpu.data     0.918345                       # Average percentage of cache occupancy
system.cpu.dcache.tags.occ_percent::.switch_cpus.data     0.081655                       # Average percentage of cache occupancy
system.cpu.dcache.tags.occ_percent::total            1                       # Average percentage of cache occupancy
system.cpu.dcache.tags.occ_task_id_blocks::1024         1024                       # Occupied blocks per task id
system.cpu.dcache.tags.age_task_id_blocks_1024::1            2                       # Occupied blocks per task id
system.cpu.dcache.tags.age_task_id_blocks_1024::2            1                       # Occupied blocks per task id
system.cpu.dcache.tags.age_task_id_blocks_1024::3         1021                       # Occupied blocks per task id
system.cpu.dcache.tags.occ_task_id_percent::1024            1                       # Percentage of cache occupancy per task id
system.cpu.dcache.tags.tag_accesses           6985999                       # Number of tag accesses
system.cpu.dcache.tags.data_accesses          6985999                       # Number of data accesses
system.cpu.dcache.tags.power_state.pwrStateResidencyTicks::UNDEFINED   4638218500                       # Cumulative time (in ticks) in various power states
system.cpu.dtb.rdAccesses                           0                       # TLB accesses on read requests
system.cpu.dtb.wrAccesses                           0                       # TLB accesses on write requests
system.cpu.dtb.rdMisses                             0                       # TLB misses on read requests
system.cpu.dtb.wrMisses                             0                       # TLB misses on write requests
system.cpu.dtb.walker.power_state.pwrStateResidencyTicks::UNDEFINED   4638218500                       # Cumulative time (in ticks) in various power states
system.cpu.dtb_walker_cache.blocked_cycles::no_mshrs            0                       # number of cycles access was blocked
system.cpu.dtb_walker_cache.blocked_cycles::no_targets            0                       # number of cycles access was blocked
system.cpu.dtb_walker_cache.blocked::no_mshrs            0                       # number of cycles access was blocked
system.cpu.dtb_walker_cache.blocked::no_targets            0                       # number of cycles access was blocked
system.cpu.dtb_walker_cache.avg_blocked_cycles::no_mshrs          nan                       # average number of cycles each access was blocked
system.cpu.dtb_walker_cache.avg_blocked_cycles::no_targets          nan                       # average number of cycles each access was blocked
system.cpu.dtb_walker_cache.replacements            0                       # number of replacements
system.cpu.dtb_walker_cache.power_state.pwrStateResidencyTicks::UNDEFINED   4638218500                       # Cumulative time (in ticks) in various power states
system.cpu.dtb_walker_cache.tags.tagsinuse            0                       # Cycle average of tags in use
system.cpu.dtb_walker_cache.tags.total_refs            0                       # Total number of references to valid blocks.
system.cpu.dtb_walker_cache.tags.sampled_refs            0                       # Sample count of references to valid blocks.
system.cpu.dtb_walker_cache.tags.avg_refs          nan                       # Average number of references to valid blocks.
system.cpu.dtb_walker_cache.tags.warmup_cycle            0                       # Cycle when the warmup percentage was hit.
system.cpu.dtb_walker_cache.tags.tag_accesses            0                       # Number of tag accesses
system.cpu.dtb_walker_cache.tags.data_accesses            0                       # Number of data accesses
system.cpu.dtb_walker_cache.tags.power_state.pwrStateResidencyTicks::UNDEFINED   4638218500                       # Cumulative time (in ticks) in various power states
system.cpu.icache.demand_hits::.switch_cpus.inst      1873374                       # number of demand (read+write) hits
system.cpu.icache.demand_hits::total          1873374                       # number of demand (read+write) hits
system.cpu.icache.overall_hits::.switch_cpus.inst      1873374                       # number of overall hits
system.cpu.icache.overall_hits::total         1873374                       # number of overall hits
system.cpu.icache.demand_misses::.switch_cpus.inst         5368                       # number of demand (read+write) misses
system.cpu.icache.demand_misses::total           5368                       # number of demand (read+write) misses
system.cpu.icache.overall_misses::.switch_cpus.inst         5368                       # number of overall misses
system.cpu.icache.overall_misses::total          5368                       # number of overall misses
system.cpu.icache.demand_miss_latency::.switch_cpus.inst    126042000                       # number of demand (read+write) miss cycles
system.cpu.icache.demand_miss_latency::total    126042000                       # number of demand (read+write) miss cycles
system.cpu.icache.overall_miss_latency::.switch_cpus.inst    126042000                       # number of overall miss cycles
system.cpu.icache.overall_miss_latency::total    126042000                       # number of overall miss cycles
system.cpu.icache.demand_accesses::.switch_cpus.inst      1878742                       # number of demand (read+write) accesses
system.cpu.icache.demand_accesses::total      1878742                       # number of demand (read+write) accesses
system.cpu.icache.overall_accesses::.switch_cpus.inst      1878742                       # number of overall (read+write) accesses
system.cpu.icache.overall_accesses::total      1878742                       # number of overall (read+write) accesses
system.cpu.icache.demand_miss_rate::.switch_cpus.inst     0.002857                       # miss rate for demand accesses
system.cpu.icache.demand_miss_rate::total     0.002857                       # miss rate for demand accesses
system.cpu.icache.overall_miss_rate::.switch_cpus.inst     0.002857                       # miss rate for overall accesses
system.cpu.icache.overall_miss_rate::total     0.002857                       # miss rate for overall accesses
system.cpu.icache.demand_avg_miss_latency::.switch_cpus.inst 23480.253353                       # average overall miss latency
system.cpu.icache.demand_avg_miss_latency::total 23480.253353                       # average overall miss latency
system.cpu.icache.overall_avg_miss_latency::.switch_cpus.inst 23480.253353                       # average overall miss latency
system.cpu.icache.overall_avg_miss_latency::total 23480.253353                       # average overall miss latency
system.cpu.icache.blocked_cycles::no_mshrs          169                       # number of cycles access was blocked
system.cpu.icache.blocked_cycles::no_targets            0                       # number of cycles access was blocked
system.cpu.icache.blocked::no_mshrs                 2                       # number of cycles access was blocked
system.cpu.icache.blocked::no_targets               0                       # number of cycles access was blocked
system.cpu.icache.avg_blocked_cycles::no_mshrs    84.500000                       # average number of cycles each access was blocked
system.cpu.icache.avg_blocked_cycles::no_targets          nan                       # average number of cycles each access was blocked
system.cpu.icache.writebacks::.writebacks         4549                       # number of writebacks
system.cpu.icache.writebacks::total              4549                       # number of writebacks
system.cpu.icache.demand_mshr_hits::.switch_cpus.inst          800                       # number of demand (read+write) MSHR hits
system.cpu.icache.demand_mshr_hits::total          800                       # number of demand (read+write) MSHR hits
system.cpu.icache.overall_mshr_hits::.switch_cpus.inst          800                       # number of overall MSHR hits
system.cpu.icache.overall_mshr_hits::total          800                       # number of overall MSHR hits
system.cpu.icache.demand_mshr_misses::.switch_cpus.inst         4568                       # number of demand (read+write) MSHR misses
system.cpu.icache.demand_mshr_misses::total         4568                       # number of demand (read+write) MSHR misses
system.cpu.icache.overall_mshr_misses::.switch_cpus.inst         4568                       # number of overall MSHR misses
system.cpu.icache.overall_mshr_misses::total         4568                       # number of overall MSHR misses
system.cpu.icache.demand_mshr_miss_latency::.switch_cpus.inst    104134500                       # number of demand (read+write) MSHR miss cycles
system.cpu.icache.demand_mshr_miss_latency::total    104134500                       # number of demand (read+write) MSHR miss cycles
system.cpu.icache.overall_mshr_miss_latency::.switch_cpus.inst    104134500                       # number of overall MSHR miss cycles
system.cpu.icache.overall_mshr_miss_latency::total    104134500                       # number of overall MSHR miss cycles
system.cpu.icache.demand_mshr_miss_rate::.switch_cpus.inst     0.002431                       # mshr miss rate for demand accesses
system.cpu.icache.demand_mshr_miss_rate::total     0.002431                       # mshr miss rate for demand accesses
system.cpu.icache.overall_mshr_miss_rate::.switch_cpus.inst     0.002431                       # mshr miss rate for overall accesses
system.cpu.icache.overall_mshr_miss_rate::total     0.002431                       # mshr miss rate for overall accesses
system.cpu.icache.demand_avg_mshr_miss_latency::.switch_cpus.inst 22796.519264                       # average overall mshr miss latency
system.cpu.icache.demand_avg_mshr_miss_latency::total 22796.519264                       # average overall mshr miss latency
system.cpu.icache.overall_avg_mshr_miss_latency::.switch_cpus.inst 22796.519264                       # average overall mshr miss latency
system.cpu.icache.overall_avg_mshr_miss_latency::total 22796.519264                       # average overall mshr miss latency
system.cpu.icache.replacements                   4549                       # number of replacements
system.cpu.icache.ReadReq_hits::.switch_cpus.inst      1873374                       # number of ReadReq hits
system.cpu.icache.ReadReq_hits::total         1873374                       # number of ReadReq hits
system.cpu.icache.ReadReq_misses::.switch_cpus.inst         5368                       # number of ReadReq misses
system.cpu.icache.ReadReq_misses::total          5368                       # number of ReadReq misses
system.cpu.icache.ReadReq_miss_latency::.switch_cpus.inst    126042000                       # number of ReadReq miss cycles
system.cpu.icache.ReadReq_miss_latency::total    126042000                       # number of ReadReq miss cycles
system.cpu.icache.ReadReq_accesses::.switch_cpus.inst      1878742                       # number of ReadReq accesses(hits+misses)
system.cpu.icache.ReadReq_accesses::total      1878742                       # number of ReadReq accesses(hits+misses)
system.cpu.icache.ReadReq_miss_rate::.switch_cpus.inst     0.002857                       # miss rate for ReadReq accesses
system.cpu.icache.ReadReq_miss_rate::total     0.002857                       # miss rate for ReadReq accesses
system.cpu.icache.ReadReq_avg_miss_latency::.switch_cpus.inst 23480.253353                       # average ReadReq miss latency
system.cpu.icache.ReadReq_avg_miss_latency::total 23480.253353                       # average ReadReq miss latency
system.cpu.icache.ReadReq_mshr_hits::.switch_cpus.inst          800                       # number of ReadReq MSHR hits
system.cpu.icache.ReadReq_mshr_hits::total          800                       # number of ReadReq MSHR hits
system.cpu.icache.ReadReq_mshr_misses::.switch_cpus.inst         4568                       # number of ReadReq MSHR misses
system.cpu.icache.ReadReq_mshr_misses::total         4568                       # number of ReadReq MSHR misses
system.cpu.icache.ReadReq_mshr_miss_latency::.switch_cpus.inst    104134500                       # number of ReadReq MSHR miss cycles
system.cpu.icache.ReadReq_mshr_miss_latency::total    104134500                       # number of ReadReq MSHR miss cycles
system.cpu.icache.ReadReq_mshr_miss_rate::.switch_cpus.inst     0.002431                       # mshr miss rate for ReadReq accesses
system.cpu.icache.ReadReq_mshr_miss_rate::total     0.002431                       # mshr miss rate for ReadReq accesses
system.cpu.icache.ReadReq_avg_mshr_miss_latency::.switch_cpus.inst 22796.519264                       # average ReadReq mshr miss latency
system.cpu.icache.ReadReq_avg_mshr_miss_latency::total 22796.519264                       # average ReadReq mshr miss latency
system.cpu.icache.power_state.pwrStateResidencyTicks::UNDEFINED   4638218500                       # Cumulative time (in ticks) in various power states
system.cpu.icache.tags.tagsinuse          1021.459569                       # Cycle average of tags in use
system.cpu.icache.tags.total_refs             2647513                       # Total number of references to valid blocks.
system.cpu.icache.tags.sampled_refs              5573                       # Sample count of references to valid blocks.
system.cpu.icache.tags.avg_refs            475.060650                       # Average number of references to valid blocks.
system.cpu.icache.tags.warmup_cycle                 0                       # Cycle when the warmup percentage was hit.
system.cpu.icache.tags.occ_blocks::.cpu.inst   332.644617                       # Average occupied blocks per requestor
system.cpu.icache.tags.occ_blocks::.switch_cpus.inst   688.814952                       # Average occupied blocks per requestor
system.cpu.icache.tags.occ_percent::.cpu.inst     0.324848                       # Average percentage of cache occupancy
system.cpu.icache.tags.occ_percent::.switch_cpus.inst     0.672671                       # Average percentage of cache occupancy
system.cpu.icache.tags.occ_percent::total     0.997519                       # Average percentage of cache occupancy
system.cpu.icache.tags.occ_task_id_blocks::1024         1024                       # Occupied blocks per task id
system.cpu.icache.tags.age_task_id_blocks_1024::1          489                       # Occupied blocks per task id
system.cpu.icache.tags.age_task_id_blocks_1024::2          185                       # Occupied blocks per task id
system.cpu.icache.tags.age_task_id_blocks_1024::3          350                       # Occupied blocks per task id
system.cpu.icache.tags.occ_task_id_percent::1024            1                       # Percentage of cache occupancy per task id
system.cpu.icache.tags.tag_accesses           3762052                       # Number of tag accesses
system.cpu.icache.tags.data_accesses          3762052                       # Number of data accesses
system.cpu.icache.tags.power_state.pwrStateResidencyTicks::UNDEFINED   4638218500                       # Cumulative time (in ticks) in various power states
system.cpu.interrupts.clk_domain.clock           8000                       # Clock period in ticks
system.cpu.itb.rdAccesses                           0                       # TLB accesses on read requests
system.cpu.itb.wrAccesses                           0                       # TLB accesses on write requests
system.cpu.itb.rdMisses                             0                       # TLB misses on read requests
system.cpu.itb.wrMisses                             0                       # TLB misses on write requests
system.cpu.itb.walker.power_state.pwrStateResidencyTicks::UNDEFINED   4638218500                       # Cumulative time (in ticks) in various power states
system.cpu.itb_walker_cache.blocked_cycles::no_mshrs            0                       # number of cycles access was blocked
system.cpu.itb_walker_cache.blocked_cycles::no_targets            0                       # number of cycles access was blocked
system.cpu.itb_walker_cache.blocked::no_mshrs            0                       # number of cycles access was blocked
system.cpu.itb_walker_cache.blocked::no_targets            0                       # number of cycles access was blocked
system.cpu.itb_walker_cache.avg_blocked_cycles::no_mshrs          nan                       # average number of cycles each access was blocked
system.cpu.itb_walker_cache.avg_blocked_cycles::no_targets          nan                       # average number of cycles each access was blocked
system.cpu.itb_walker_cache.replacements            0                       # number of replacements
system.cpu.itb_walker_cache.power_state.pwrStateResidencyTicks::UNDEFINED   4638218500                       # Cumulative time (in ticks) in various power states
system.cpu.itb_walker_cache.tags.tagsinuse            0                       # Cycle average of tags in use
system.cpu.itb_walker_cache.tags.total_refs            0                       # Total number of references to valid blocks.
system.cpu.itb_walker_cache.tags.sampled_refs            0                       # Sample count of references to valid blocks.
system.cpu.itb_walker_cache.tags.avg_refs          nan                       # Average number of references to valid blocks.
system.cpu.itb_walker_cache.tags.warmup_cycle            0                       # Cycle when the warmup percentage was hit.
system.cpu.itb_walker_cache.tags.tag_accesses            0                       # Number of tag accesses
system.cpu.itb_walker_cache.tags.data_accesses            0                       # Number of data accesses
system.cpu.itb_walker_cache.tags.power_state.pwrStateResidencyTicks::UNDEFINED   4638218500                       # Cumulative time (in ticks) in various power states
system.cpu.power_state.pwrStateResidencyTicks::OFF   3549493500                       # Cumulative time (in ticks) in various power states
system.cpu.thread_0.numInsts                        0                       # Number of Instructions committed
system.cpu.thread_0.numOps                          0                       # Number of Ops committed
system.cpu.thread_0.numMemRefs                      0                       # Number of Memory References
system.cpu_clk_domain.clock                       500                       # Clock period in ticks
system.cpu_voltage_domain.voltage                   1                       # Voltage in Volts
system.l2.demand_hits::.switch_cpus.inst         3789                       # number of demand (read+write) hits
system.l2.demand_hits::.switch_cpus.data           40                       # number of demand (read+write) hits
system.l2.demand_hits::total                     3829                       # number of demand (read+write) hits
system.l2.overall_hits::.switch_cpus.inst         3789                       # number of overall hits
system.l2.overall_hits::.switch_cpus.data           40                       # number of overall hits
system.l2.overall_hits::total                    3829                       # number of overall hits
system.l2.demand_misses::.switch_cpus.inst          779                       # number of demand (read+write) misses
system.l2.demand_misses::.switch_cpus.data           77                       # number of demand (read+write) misses
system.l2.demand_misses::total                    856                       # number of demand (read+write) misses
system.l2.overall_misses::.switch_cpus.inst          779                       # number of overall misses
system.l2.overall_misses::.switch_cpus.data           77                       # number of overall misses
system.l2.overall_misses::total                   856                       # number of overall misses
system.l2.demand_miss_latency::.switch_cpus.inst     57378000                       # number of demand (read+write) miss cycles
system.l2.demand_miss_latency::.switch_cpus.data      5874000                       # number of demand (read+write) miss cycles
system.l2.demand_miss_latency::total         63252000                       # number of demand (read+write) miss cycles
system.l2.overall_miss_latency::.switch_cpus.inst     57378000                       # number of overall miss cycles
system.l2.overall_miss_latency::.switch_cpus.data      5874000                       # number of overall miss cycles
system.l2.overall_miss_latency::total        63252000                       # number of overall miss cycles
system.l2.demand_accesses::.switch_cpus.inst         4568                       # number of demand (read+write) accesses
system.l2.demand_accesses::.switch_cpus.data          117                       # number of demand (read+write) accesses
system.l2.demand_accesses::total                 4685                       # number of demand (read+write) accesses
system.l2.overall_accesses::.switch_cpus.inst         4568                       # number of overall (read+write) accesses
system.l2.overall_accesses::.switch_cpus.data          117                       # number of overall (read+write) accesses
system.l2.overall_accesses::total                4685                       # number of overall (read+write) accesses
system.l2.demand_miss_rate::.switch_cpus.inst     0.170534                       # miss rate for demand accesses
system.l2.demand_miss_rate::.switch_cpus.data     0.658120                       # miss rate for demand accesses
system.l2.demand_miss_rate::total            0.182711                       # miss rate for demand accesses
system.l2.overall_miss_rate::.switch_cpus.inst     0.170534                       # miss rate for overall accesses
system.l2.overall_miss_rate::.switch_cpus.data     0.658120                       # miss rate for overall accesses
system.l2.overall_miss_rate::total           0.182711                       # miss rate for overall accesses
system.l2.demand_avg_miss_latency::.switch_cpus.inst 73655.969191                       # average overall miss latency
system.l2.demand_avg_miss_latency::.switch_cpus.data 76285.714286                       # average overall miss latency
system.l2.demand_avg_miss_latency::total 73892.523364                       # average overall miss latency
system.l2.overall_avg_miss_latency::.switch_cpus.inst 73655.969191                       # average overall miss latency
system.l2.overall_avg_miss_latency::.switch_cpus.data 76285.714286                       # average overall miss latency
system.l2.overall_avg_miss_latency::total 73892.523364                       # average overall miss latency
system.l2.blocked_cycles::no_mshrs                  0                       # number of cycles access was blocked
system.l2.blocked_cycles::no_targets                0                       # number of cycles access was blocked
system.l2.blocked::no_mshrs                         0                       # number of cycles access was blocked
system.l2.blocked::no_targets                       0                       # number of cycles access was blocked
system.l2.avg_blocked_cycles::no_mshrs            nan                       # average number of cycles each access was blocked
system.l2.avg_blocked_cycles::no_targets          nan                       # average number of cycles each access was blocked
system.l2.writebacks::.writebacks                  67                       # number of writebacks
system.l2.writebacks::total                        67                       # number of writebacks
system.l2.demand_mshr_misses::.switch_cpus.inst          779                       # number of demand (read+write) MSHR misses
system.l2.demand_mshr_misses::.switch_cpus.data           77                       # number of demand (read+write) MSHR misses
system.l2.demand_mshr_misses::total               856                       # number of demand (read+write) MSHR misses
system.l2.overall_mshr_misses::.switch_cpus.inst          779                       # number of overall MSHR misses
system.l2.overall_mshr_misses::.switch_cpus.data           77                       # number of overall MSHR misses
system.l2.overall_mshr_misses::total              856                       # number of overall MSHR misses
system.l2.demand_mshr_miss_latency::.switch_cpus.inst     49588000                       # number of demand (read+write) MSHR miss cycles
system.l2.demand_mshr_miss_latency::.switch_cpus.data      5104000                       # number of demand (read+write) MSHR miss cycles
system.l2.demand_mshr_miss_latency::total     54692000                       # number of demand (read+write) MSHR miss cycles
system.l2.overall_mshr_miss_latency::.switch_cpus.inst     49588000                       # number of overall MSHR miss cycles
system.l2.overall_mshr_miss_latency::.switch_cpus.data      5104000                       # number of overall MSHR miss cycles
system.l2.overall_mshr_miss_latency::total     54692000                       # number of overall MSHR miss cycles
system.l2.demand_mshr_miss_rate::.switch_cpus.inst     0.170534                       # mshr miss rate for demand accesses
system.l2.demand_mshr_miss_rate::.switch_cpus.data     0.658120                       # mshr miss rate for demand accesses
system.l2.demand_mshr_miss_rate::total       0.182711                       # mshr miss rate for demand accesses
system.l2.overall_mshr_miss_rate::.switch_cpus.inst     0.170534                       # mshr miss rate for overall accesses
system.l2.overall_mshr_miss_rate::.switch_cpus.data     0.658120                       # mshr miss rate for overall accesses
system.l2.overall_mshr_miss_rate::total      0.182711                       # mshr miss rate for overall accesses
system.l2.demand_avg_mshr_miss_latency::.switch_cpus.inst 63655.969191                       # average overall mshr miss latency
system.l2.demand_avg_mshr_miss_latency::.switch_cpus.data 66285.714286                       # average overall mshr miss latency
system.l2.demand_avg_mshr_miss_latency::total 63892.523364                       # average overall mshr miss latency
system.l2.overall_avg_mshr_miss_latency::.switch_cpus.inst 63655.969191                       # average overall mshr miss latency
system.l2.overall_avg_mshr_miss_latency::.switch_cpus.data 66285.714286                       # average overall mshr miss latency
system.l2.overall_avg_mshr_miss_latency::total 63892.523364                       # average overall mshr miss latency
system.l2.replacements                            315                       # number of replacements
system.l2.WritebackDirty_hits::.writebacks          107                       # number of WritebackDirty hits
system.l2.WritebackDirty_hits::total              107                       # number of WritebackDirty hits
system.l2.WritebackDirty_accesses::.writebacks          107                       # number of WritebackDirty accesses(hits+misses)
system.l2.WritebackDirty_accesses::total          107                       # number of WritebackDirty accesses(hits+misses)
system.l2.WritebackClean_hits::.writebacks         4548                       # number of WritebackClean hits
system.l2.WritebackClean_hits::total             4548                       # number of WritebackClean hits
system.l2.WritebackClean_accesses::.writebacks         4548                       # number of WritebackClean accesses(hits+misses)
system.l2.WritebackClean_accesses::total         4548                       # number of WritebackClean accesses(hits+misses)
system.l2.ReadExReq_hits::.switch_cpus.data           12                       # number of ReadExReq hits
system.l2.ReadExReq_hits::total                    12                       # number of ReadExReq hits
system.l2.ReadExReq_misses::.switch_cpus.data           70                       # number of ReadExReq misses
system.l2.ReadExReq_misses::total                  70                       # number of ReadExReq misses
system.l2.ReadExReq_miss_latency::.switch_cpus.data      5355000                       # number of ReadExReq miss cycles
system.l2.ReadExReq_miss_latency::total       5355000                       # number of ReadExReq miss cycles
system.l2.ReadExReq_accesses::.switch_cpus.data           82                       # number of ReadExReq accesses(hits+misses)
system.l2.ReadExReq_accesses::total                82                       # number of ReadExReq accesses(hits+misses)
system.l2.ReadExReq_miss_rate::.switch_cpus.data     0.853659                       # miss rate for ReadExReq accesses
system.l2.ReadExReq_miss_rate::total         0.853659                       # miss rate for ReadExReq accesses
system.l2.ReadExReq_avg_miss_latency::.switch_cpus.data        76500                       # average ReadExReq miss latency
system.l2.ReadExReq_avg_miss_latency::total        76500                       # average ReadExReq miss latency
system.l2.ReadExReq_mshr_misses::.switch_cpus.data           70                       # number of ReadExReq MSHR misses
system.l2.ReadExReq_mshr_misses::total             70                       # number of ReadExReq MSHR misses
system.l2.ReadExReq_mshr_miss_latency::.switch_cpus.data      4655000                       # number of ReadExReq MSHR miss cycles
system.l2.ReadExReq_mshr_miss_latency::total      4655000                       # number of ReadExReq MSHR miss cycles
system.l2.ReadExReq_mshr_miss_rate::.switch_cpus.data     0.853659                       # mshr miss rate for ReadExReq accesses
system.l2.ReadExReq_mshr_miss_rate::total     0.853659                       # mshr miss rate for ReadExReq accesses
system.l2.ReadExReq_avg_mshr_miss_latency::.switch_cpus.data        66500                       # average ReadExReq mshr miss latency
system.l2.ReadExReq_avg_mshr_miss_latency::total        66500                       # average ReadExReq mshr miss latency
system.l2.ReadCleanReq_hits::.switch_cpus.inst         3789                       # number of ReadCleanReq hits
system.l2.ReadCleanReq_hits::total               3789                       # number of ReadCleanReq hits
system.l2.ReadCleanReq_misses::.switch_cpus.inst          779                       # number of ReadCleanReq misses
system.l2.ReadCleanReq_misses::total              779                       # number of ReadCleanReq misses
system.l2.ReadCleanReq_miss_latency::.switch_cpus.inst     57378000                       # number of ReadCleanReq miss cycles
system.l2.ReadCleanReq_miss_latency::total     57378000                       # number of ReadCleanReq miss cycles
system.l2.ReadCleanReq_accesses::.switch_cpus.inst         4568                       # number of ReadCleanReq accesses(hits+misses)
system.l2.ReadCleanReq_accesses::total           4568                       # number of ReadCleanReq accesses(hits+misses)
system.l2.ReadCleanReq_miss_rate::.switch_cpus.inst     0.170534                       # miss rate for ReadCleanReq accesses
system.l2.ReadCleanReq_miss_rate::total      0.170534                       # miss rate for ReadCleanReq accesses
system.l2.ReadCleanReq_avg_miss_latency::.switch_cpus.inst 73655.969191                       # average ReadCleanReq miss latency
system.l2.ReadCleanReq_avg_miss_latency::total 73655.969191                       # average ReadCleanReq miss latency
system.l2.ReadCleanReq_mshr_misses::.switch_cpus.inst          779                       # number of ReadCleanReq MSHR misses
[...]
system.switch_cpus.commit.committedInstType_0::FloatMisc            0      0.00%     81.93% # Class of committed instruction
system.switch_cpus.commit.committedInstType_0::FloatSqrt            0      0.00%     81.93% # Class of committed instruction
system.switch_cpus.commit.committedInstType_0::SimdAdd            0      0.00%     81.93% # Class of committed instruction
system.switch_cpus.commit.committedInstType_0::SimdAddAcc            0      0.00%     81.93% # Class of committed instruction
system.switch_cpus.commit.committedInstType_0::SimdAlu           68      0.00%     81.93% # Class of committed instruction
system.switch_cpus.commit.committedInstType_0::SimdCmp            0      0.00%     81.93% # Class of committed instruction
system.switch_cpus.commit.committedInstType_0::SimdCvt            0      0.00%     81.93% # Class of committed instruction
system.switch_cpus.commit.committedInstType_0::SimdMisc         2798      0.02%     81.95% # Class of committed instruction
system.switch_cpus.commit.committedInstType_0::SimdMult            0      0.00%     81.95% # Class of committed instruction
system.switch_cpus.commit.committedInstType_0::SimdMultAcc            0      0.00%     81.95% # Class of committed instruction
system.switch_cpus.commit.committedInstType_0::SimdShift            0      0.00%     81.95% # Class of committed instruction
system.switch_cpus.commit.committedInstType_0::SimdShiftAcc            0      0.00%     81.95% # Class of committed instruction
system.switch_cpus.commit.committedInstType_0::SimdDiv            0      0.00%     81.95% # Class of committed instruction
system.switch_cpus.commit.committedInstType_0::SimdSqrt            0      0.00%     81.95% # Class of committed instruction
system.switch_cpus.commit.committedInstType_0::SimdFloatAdd            0      0.00%     81.95% # Class of committed instruction
system.switch_cpus.commit.committedInstType_0::SimdFloatAlu            0      0.00%     81.95% # Class of committed instruction
system.switch_cpus.commit.committedInstType_0::SimdFloatCmp            0      0.00%     81.95% # Class of committed instruction
system.switch_cpus.commit.committedInstType_0::SimdFloatCvt            0      0.00%     81.95% # Class of committed instruction
system.switch_cpus.commit.committedInstType_0::SimdFloatDiv            0      0.00%     81.95% # Class of committed instruction
system.switch_cpus.commit.committedInstType_0::SimdFloatMisc            0      0.00%     81.95% # Class of committed instruction
system.switch_cpus.commit.committedInstType_0::SimdFloatMult            0      0.00%     81.95% # Class of committed instruction
system.switch_cpus.commit.committedInstType_0::SimdFloatMultAcc            0      0.00%     81.95% # Class of committed instruction
system.switch_cpus.commit.committedInstType_0::SimdFloatSqrt            0      0.00%     81.95% # Class of committed instruction
system.switch_cpus.commit.committedInstType_0::SimdReduceAdd            0      0.00%     81.95% # Class of committed instruction
system.switch_cpus.commit.committedInstType_0::SimdReduceAlu            0      0.00%     81.95% # Class of committed instruction
system.switch_cpus.commit.committedInstType_0::SimdReduceCmp            0      0.00%     81.95% # Class of committed instruction
system.switch_cpus.commit.committedInstType_0::SimdFloatReduceAdd            0      0.00%     81.95% # Class of committed instruction
system.switch_cpus.commit.committedInstType_0::SimdFloatReduceCmp            0      0.00%     81.95% # Class of committed instruction
system.switch_cpus.commit.committedInstType_0::SimdAes            0      0.00%     81.95% # Class of committed instruction
system.switch_cpus.commit.committedInstType_0::SimdAesMix            0      0.00%     81.95% # Class of committed instruction
system.switch_cpus.commit.committedInstType_0::SimdSha1Hash            0      0.00%     81.95% # Class of committed instruction
system.switch_cpus.commit.committedInstType_0::SimdSha1Hash2            0      0.00%     81.95% # Class of committed instruction
system.switch_cpus.commit.committedInstType_0::SimdSha256Hash            0      0.00%     81.95% # Class of committed instruction
system.switch_cpus.commit.committedInstType_0::SimdSha256Hash2            0      0.00%     81.95% # Class of committed instruction
system.switch_cpus.commit.committedInstType_0::SimdShaSigma2            0      0.00%     81.95% # Class of committed instruction
system.switch_cpus.commit.committedInstType_0::SimdShaSigma3            0      0.00%     81.95% # Class of committed instruction
system.switch_cpus.commit.committedInstType_0::SimdPredAlu            0      0.00%     81.95% # Class of committed instruction
system.switch_cpus.commit.committedInstType_0::MemRead      2048071     11.76%     93.71% # Class of committed instruction
system.switch_cpus.commit.committedInstType_0::MemWrite      1025864      5.89%     99.60% # Class of committed instruction
system.switch_cpus.commit.committedInstType_0::FloatMemRead        33924      0.19%     99.79% # Class of committed instruction
system.switch_cpus.commit.committedInstType_0::FloatMemWrite        35740      0.21%    100.00% # Class of committed instruction
system.switch_cpus.commit.committedInstType_0::IprAccess            0      0.00%    100.00% # Class of committed instruction
system.switch_cpus.commit.committedInstType_0::InstPrefetch            0      0.00%    100.00% # Class of committed instruction
system.switch_cpus.commit.committedInstType_0::total     17415167                       # Class of committed instruction
system.switch_cpus.commit.commitEligibleSamples      1154707                       # number cycles where commit BW limit reached
system.switch_cpus.decode.idleCycles          1906977                       # Number of cycles decode is idle
system.switch_cpus.decode.blockedCycles        860112                       # Number of cycles decode is blocked
system.switch_cpus.decode.runCycles           3786442                       # Number of cycles decode is running
system.switch_cpus.decode.unblockCycles        274566                       # Number of cycles decode is unblocking
system.switch_cpus.decode.squashCycles         206569                       # Number of cycles decode is squashing
system.switch_cpus.decode.branchResolved      1699990                       # Number of times decode resolved a  branch
system.switch_cpus.decode.branchMispred         22018                       # Number of times decode detected a branch misprediction
system.switch_cpus.decode.decodedInsts       26439893                       # Number of instructions handled by decode
system.switch_cpus.decode.squashedInsts         42779                       # Number of squashed instructions handled by decode
system.switch_cpus.dtb.rdAccesses             2569769                       # TLB accesses on read requests
system.switch_cpus.dtb.wrAccesses             1204852                       # TLB accesses on write requests
system.switch_cpus.dtb.rdMisses                    21                       # TLB misses on read requests
system.switch_cpus.dtb.wrMisses                    13                       # TLB misses on write requests
system.switch_cpus.dtb.walker.power_state.pwrStateResidencyTicks::UNDEFINED   4638218500                       # Cumulative time (in ticks) in various power states
system.switch_cpus.fetch.icacheStallCycles      2091065                       # Number of cycles fetch is stalled on an Icache miss
system.switch_cpus.fetch.insts               15848948                       # Number of instructions fetch has processed
system.switch_cpus.fetch.branches             2851209                       # Number of branches that fetch encountered
system.switch_cpus.fetch.predictedBranches      1825842                       # Number of branches that fetch has predicted taken
system.switch_cpus.fetch.cycles               4715095                       # Number of cycles fetch has run and was not squashing or blocked
system.switch_cpus.fetch.squashCycles          456982                       # Number of cycles fetch has spent squashing
system.switch_cpus.fetch.miscStallCycles            1                       # Number of cycles fetch has spent waiting on interrupts,or bad addresses, or out of MSHRs
system.switch_cpus.fetch.icacheWaitRetryStallCycles           17                       # Number of stall cycles due to full MSHR
system.switch_cpus.fetch.cacheLines           1878742                       # Number of cache lines fetched
system.switch_cpus.fetch.icacheSquashes         35282                       # Number of outstanding Icache misses that were squashed
system.switch_cpus.fetch.nisnDist::samples      7034669                       # Number of instructions fetched each cycle (Total)
system.switch_cpus.fetch.nisnDist::mean      3.971964                       # Number of instructions fetched each cycle (Total)
system.switch_cpus.fetch.nisnDist::stdev     3.449292                       # Number of instructions fetched each cycle (Total)
system.switch_cpus.fetch.nisnDist::underflows            0      0.00%      0.00% # Number of instructions fetched each cycle (Total)
system.switch_cpus.fetch.nisnDist::0          2528429     35.94%     35.94% # Number of instructions fetched each cycle (Total)
system.switch_cpus.fetch.nisnDist::1           151799      2.16%     38.10% # Number of instructions fetched each cycle (Total)
system.switch_cpus.fetch.nisnDist::2           163340      2.32%     40.42% # Number of instructions fetched each cycle (Total)
system.switch_cpus.fetch.nisnDist::3           390348      5.55%     45.97% # Number of instructions fetched each cycle (Total)
system.switch_cpus.fetch.nisnDist::4           479585      6.82%     52.79% # Number of instructions fetched each cycle (Total)
system.switch_cpus.fetch.nisnDist::5           446464      6.35%     59.14% # Number of instructions fetched each cycle (Total)
system.switch_cpus.fetch.nisnDist::6           194672      2.77%     61.90% # Number of instructions fetched each cycle (Total)
system.switch_cpus.fetch.nisnDist::7           467016      6.64%     68.54% # Number of instructions fetched each cycle (Total)
system.switch_cpus.fetch.nisnDist::8          2213016     31.46%    100.00% # Number of instructions fetched each cycle (Total)
system.switch_cpus.fetch.nisnDist::overflows            0      0.00%    100.00% # Number of instructions fetched each cycle (Total)
system.switch_cpus.fetch.nisnDist::min_value            0                       # Number of instructions fetched each cycle (Total)
system.switch_cpus.fetch.nisnDist::max_value            8                       # Number of instructions fetched each cycle (Total)
system.switch_cpus.fetch.nisnDist::total      7034669                       # Number of instructions fetched each cycle (Total)
system.switch_cpus.fetch.branchRate          0.401636                       # Number of branch fetches per cycle
system.switch_cpus.fetch.rate                2.232565                       # Number of inst fetches per cycle
system.switch_cpus.itb.rdAccesses                   0                       # TLB accesses on read requests
system.switch_cpus.itb.wrAccesses             1878742                       # TLB accesses on write requests
system.switch_cpus.itb.rdMisses                     0                       # TLB misses on read requests
system.switch_cpus.itb.wrMisses                    42                       # TLB misses on write requests
system.switch_cpus.itb.walker.power_state.pwrStateResidencyTicks::UNDEFINED   4638218500                       # Cumulative time (in ticks) in various power states
system.switch_cpus.lsq0.forwLoads              138626                       # Number of loads that had data forwarded from stores
system.switch_cpus.lsq0.squashedLoads          698913                       # Number of loads squashed
system.switch_cpus.lsq0.ignoredResponses          308                       # Number of memory responses ignored because the instruction is squashed
system.switch_cpus.lsq0.memOrderViolation         1634                       # Number of memory ordering violations
system.switch_cpus.lsq0.squashedStores         325361                       # Number of stores squashed
system.switch_cpus.lsq0.rescheduledLoads            5                       # Number of loads that were rescheduled
system.switch_cpus.lsq0.blockedByCache              0                       # Number of times an access to memory failed due to the cache being blocked
system.switch_cpus.power_state.pwrStateResidencyTicks::OFF   4638218500                       # Cumulative time (in ticks) in various power states
system.switch_cpus.rename.squashCycles         206569                       # Number of cycles rename is squashing
system.switch_cpus.rename.idleCycles          2130395                       # Number of cycles rename is idle
system.switch_cpus.rename.blockCycles          636345                       # Number of cycles rename is blocking
system.switch_cpus.rename.serializeStallCycles            0                       # count of cycles rename stalledfor serializing inst
system.switch_cpus.rename.runCycles           3777131                       # Number of cycles rename is running
system.switch_cpus.rename.unblockCycles        284225                       # Number of cycles rename is unblocking
system.switch_cpus.rename.renamedInsts       25434627                       # Number of instructions processed by rename
system.switch_cpus.rename.ROBFullEvents          7730                       # Number of times rename has blocked due to ROB full
system.switch_cpus.rename.IQFullEvents          54103                       # Number of times rename has blocked due to IQ full
system.switch_cpus.rename.LQFullEvents            875                       # Number of times rename has blocked due to LQ full
system.switch_cpus.rename.SQFullEvents         138124                       # Number of times rename has blocked due to SQ full
system.switch_cpus.rename.renamedOperands     34924574                       # Number of destination operands rename has renamed
system.switch_cpus.rename.lookups            65254600                       # Number of register rename lookups that rename has made
system.switch_cpus.rename.intLookups         39411234                       # Number of integer rename lookups
system.switch_cpus.rename.fpLookups             46182                       # Number of floating rename lookups
system.switch_cpus.rename.committedMaps      23516782                       # Number of HB maps that are committed
system.switch_cpus.rename.undoneMaps         11407608                       # Number of HB maps that are undone due to squashing
system.switch_cpus.rename.serializing               0                       # count of serializing insts renamed
system.switch_cpus.rename.tempSerializing            0                       # count of temporary serializing insts renamed
system.switch_cpus.rename.skidInsts            969166                       # count of insts added to the skid buffer
system.switch_cpus.rob.reads                 28460774                       # The number of ROB reads
system.switch_cpus.rob.writes                47682917                       # The number of ROB writes
system.switch_cpus.thread_0.numInsts         10000001                       # Number of Instructions committed
system.switch_cpus.thread_0.numOps           17415167                       # Number of Ops committed
system.switch_cpus.thread_0.numMemRefs              0                       # Number of Memory References
system.tol2bus.trans_dist::ReadResp              4603                       # Transaction distribution
system.tol2bus.trans_dist::WritebackDirty          174                       # Transaction distribution
system.tol2bus.trans_dist::WritebackClean         4549                       # Transaction distribution
system.tol2bus.trans_dist::CleanEvict             258                       # Transaction distribution
system.tol2bus.trans_dist::ReadExReq               82                       # Transaction distribution
system.tol2bus.trans_dist::ReadExResp              82                       # Transaction distribution
system.tol2bus.trans_dist::ReadCleanReq          4568                       # Transaction distribution
system.tol2bus.trans_dist::ReadSharedReq           35                       # Transaction distribution
system.tol2bus.pkt_count_system.cpu.icache.mem_side_port::system.l2.cpu_side_port        13685                       # Packet count per connected requestor and responder (bytes)
system.tol2bus.pkt_count_system.cpu.dcache.mem_side_port::system.l2.cpu_side_port          351                       # Packet count per connected requestor and responder (bytes)
system.tol2bus.pkt_count::total                 14036                       # Packet count per connected requestor and responder (bytes)
system.tol2bus.pkt_size_system.cpu.icache.mem_side_port::system.l2.cpu_side_port       583488                       # Cumulative packet size per connected requestor and responder (bytes)
system.tol2bus.pkt_size_system.cpu.dcache.mem_side_port::system.l2.cpu_side_port        14336                       # Cumulative packet size per connected requestor and responder (bytes)
system.tol2bus.pkt_size::total                 597824                       # Cumulative packet size per connected requestor and responder (bytes)
system.tol2bus.snoops                             315                       # Total snoops (count)
system.tol2bus.snoopTraffic                      4288                       # Total snoop traffic (bytes)
system.tol2bus.snoop_fanout::samples             5000                       # Request fanout histogram
system.tol2bus.snoop_fanout::mean            0.001000                       # Request fanout histogram
system.tol2bus.snoop_fanout::stdev           0.031610                       # Request fanout histogram
system.tol2bus.snoop_fanout::underflows             0      0.00%      0.00% # Request fanout histogram
system.tol2bus.snoop_fanout::0                   4995     99.90%     99.90% # Request fanout histogram
system.tol2bus.snoop_fanout::1                      5      0.10%    100.00% # Request fanout histogram
system.tol2bus.snoop_fanout::2                      0      0.00%    100.00% # Request fanout histogram
system.tol2bus.snoop_fanout::3                      0      0.00%    100.00% # Request fanout histogram
system.tol2bus.snoop_fanout::4                      0      0.00%    100.00% # Request fanout histogram
system.tol2bus.snoop_fanout::overflows              0      0.00%    100.00% # Request fanout histogram
system.tol2bus.snoop_fanout::min_value              0                       # Request fanout histogram
system.tol2bus.snoop_fanout::max_value              1                       # Request fanout histogram
system.tol2bus.snoop_fanout::total               5000                       # Request fanout histogram
system.tol2bus.power_state.pwrStateResidencyTicks::UNDEFINED   4638218500                       # Cumulative time (in ticks) in various power states
system.tol2bus.reqLayer0.occupancy            9331500                       # Layer occupancy (ticks)
system.tol2bus.reqLayer0.utilization              0.3                       # Layer utilization (%)
system.tol2bus.respLayer0.occupancy           6852000                       # Layer occupancy (ticks)
system.tol2bus.respLayer0.utilization             0.2                       # Layer utilization (%)
system.tol2bus.respLayer1.occupancy            175500                       # Layer occupancy (ticks)
system.tol2bus.respLayer1.utilization             0.0                       # Layer utilization (%)
system.voltage_domain.voltage                       1                       # Voltage in Volts

---------- End Simulation Statistics   ----------
