
---------- Begin Simulation Statistics ----------
final_tick                                37367698500                       # Number of ticks from beginning of simulation (restored from checkpoints and never reset)
host_inst_rate                                  60475                       # Simulator instruction rate (inst/s)
host_mem_usage                                8811696                       # Number of bytes of host memory used
host_op_rate                                    95813                       # Simulator op (including micro ops) rate (op/s)
host_seconds                                   181.89                       # Real time elapsed on the host
host_tick_rate                              199754751                       # Simulator tick rate (ticks/s)
sim_freq                                 1000000000000                       # Frequency of simulated ticks
sim_insts                                    11000006                       # Number of instructions simulated
sim_ops                                      17427916                       # Number of ops (including micro ops) simulated
sim_seconds                                  0.036334                       # Number of seconds simulated
sim_ticks                                 36334365500                       # Number of ticks simulated
system.cpu.committedInsts                           0                       # Number of instructions committed
system.cpu.committedOps                             0                       # Number of ops (including micro ops) committed
system.cpu.idle_fraction                            0                       # Percentage of idle cycles
system.cpu.not_idle_fraction                        1                       # Percentage of non-idle cycles
system.cpu.numCycles                                0                       # number of cpu cycles simulated
system.cpu.numWorkItemsCompleted                    0                       # number of work items this cpu completed
system.cpu.numWorkItemsStarted                      0                       # number of work items this cpu started
system.cpu.num_busy_cycles                          0                       # Number of busy cycles
system.cpu.num_conditional_control_insts            0                       # number of instructions that are conditional controls
system.cpu.num_fp_alu_accesses                      0                       # Number of float alu accesses
system.cpu.num_fp_insts                             0                       # number of float instructions
system.cpu.num_fp_register_reads                    0                       # number of times the floating registers were read
system.cpu.num_fp_register_writes                   0                       # number of times the floating registers were written
system.cpu.num_func_calls                           0                       # number of times a function call or return occured
system.cpu.num_idle_cycles                          0                       # Number of idle cycles
system.cpu.num_int_alu_accesses                     0                       # Number of integer alu accesses
system.cpu.num_int_insts                            0                       # number of integer instructions
system.cpu.num_int_register_reads                   0                       # number of times the integer registers were read
system.cpu.num_int_register_writes                  0                       # number of times the integer registers were written
system.cpu.num_load_insts                           0                       # Number of load instructions
system.cpu.num_mem_refs                             0                       # number of memory refs
system.cpu.num_store_insts                          0                       # Number of store instructions
system.cpu.num_vec_alu_accesses                     0                       # Number of vector alu accesses
system.cpu.num_vec_insts                            0                       # number of vector instructions
system.cpu.num_vec_register_reads                   0                       # number of times the vector registers were read
system.cpu.num_vec_register_writes                  0                       # number of times the vector registers were written
system.cpu.op_class::No_OpClass                     0                       # Class of executed instruction
system.cpu.op_class::IntAlu                         0                       # Class of executed instruction
system.cpu.op_class::IntMult                        0                       # Class of executed instruction
system.cpu.op_class::IntDiv                         0                       # Class of executed instruction
system.cpu.op_class::FloatAdd                       0                       # Class of executed instruction
system.cpu.op_class::FloatCmp                       0                       # Class of executed instruction
system.cpu.op_class::FloatCvt                       0                       # Class of executed instruction
system.cpu.op_class::FloatMult                      0                       # Class of executed instruction
system.cpu.op_class::FloatMultAcc                   0                       # Class of executed instruction
system.cpu.op_class::FloatDiv                       0                       # Class of executed instruction
system.cpu.op_class::FloatMisc                      0                       # Class of executed instruction
system.cpu.op_class::FloatSqrt                      0                       # Class of executed instruction
system.cpu.op_class::SimdAdd                        0                       # Class of executed instruction
system.cpu.op_class::SimdAddAcc                     0                       # Class of executed instruction
system.cpu.op_class::SimdAlu                        0                       # Class of executed instruction
system.cpu.op_class::SimdCmp                        0                       # Class of executed instruction
system.cpu.op_class::SimdCvt                        0                       # Class of executed instruction
system.cpu.op_class::SimdMisc                       0                       # Class of executed instruction
system.cpu.op_class::SimdMult                       0                       # Class of executed instruction
system.cpu.op_class::SimdMultAcc                    0                       # Class of executed instruction
system.cpu.op_class::SimdShift                      0                       # Class of executed instruction
system.cpu.op_class::SimdShiftAcc                   0                       # Class of executed instruction
system.cpu.op_class::SimdDiv                        0                       # Class of executed instruction
system.cpu.op_class::SimdSqrt                       0                       # Class of executed instruction
system.cpu.op_class::SimdFloatAdd                   0                       # Class of executed instruction
system.cpu.op_class::SimdFloatAlu                   0                       # Class of executed instruction
system.cpu.op_class::SimdFloatCmp                   0                       # Class of executed instruction
system.cpu.op_class::SimdFloatCvt                   0                       # Class of executed instruction
system.cpu.op_class::SimdFloatDiv                   0                       # Class of executed instruction
system.cpu.op_class::SimdFloatMisc                  0                       # Class of executed instruction
system.cpu.op_class::SimdFloatMult                  0                       # Class of executed instruction
system.cpu.op_class::SimdFloatMultAcc               0                       # Class of executed instruction
system.cpu.op_class::SimdFloatSqrt                  0                       # Class of executed instruction
system.cpu.op_class::SimdReduceAdd                  0                       # Class of executed instruction
system.cpu.op_class::SimdReduceAlu                  0                       # Class of executed instruction
system.cpu.op_class::SimdReduceCmp                  0                       # Class of executed instruction
system.cpu.op_class::SimdFloatReduceAdd             0                       # Class of executed instruction
system.cpu.op_class::SimdFloatReduceCmp             0                       # Class of executed instruction
system.cpu.op_class::SimdAes                        0                       # Class of executed instruction
system.cpu.op_class::SimdAesMix                     0                       # Class of executed instruction
system.cpu.op_class::SimdSha1Hash                   0                       # Class of executed instruction
system.cpu.op_class::SimdSha1Hash2                  0                       # Class of executed instruction
system.cpu.op_class::SimdSha256Hash                 0                       # Class of executed instruction
system.cpu.op_class::SimdSha256Hash2                0                       # Class of executed instruction
system.cpu.op_class::SimdShaSigma2                  0                       # Class of executed instruction
system.cpu.op_class::SimdShaSigma3                  0                       # Class of executed instruction
system.cpu.op_class::SimdPredAlu                    0                       # Class of executed instruction
system.cpu.op_class::MemRead                        0                       # Class of executed instruction
system.cpu.op_class::MemWrite                       0                       # Class of executed instruction
system.cpu.op_class::FloatMemRead                   0                       # Class of executed instruction
system.cpu.op_class::FloatMemWrite                  0                       # Class of executed instruction
system.cpu.op_class::IprAccess                      0                       # Class of executed instruction
system.cpu.op_class::InstPrefetch                   0                       # Class of executed instruction
system.cpu.op_class::total                          0                       # Class of executed instruction
system.cpu.workload.numSyscalls                     7                       # Number of system calls
system.membus.snoop_filter.hit_multi_requests            0                       # Number of requests hitting in the snoop filter with multiple (>1) holders of the requested data.
system.membus.snoop_filter.hit_multi_snoops            0                       # Number of snoops hitting in the snoop filter with multiple (>1) holders of the requested data.
system.membus.snoop_filter.hit_single_requests       358140                       # Number of requests hitting in the snoop filter with a single holder of the requested data.
system.membus.snoop_filter.hit_single_snoops            0                       # Number of snoops hitting in the snoop filter with a single holder of the requested data.
system.membus.snoop_filter.tot_requests        720407                       # Total number of requests made to the snoop filter.
system.membus.snoop_filter.tot_snoops               0                       # Total number of snoops made to the snoop filter.
system.switch_cpus.cc_regfile_reads          19582231                       # number of cc regfile reads
system.switch_cpus.cc_regfile_writes         19904253                       # number of cc regfile writes
system.switch_cpus.committedInsts            10000005                       # Number of Instructions Simulated
system.switch_cpus.committedOps              15621649                       # Number of Ops (including micro ops) Simulated
system.switch_cpus.cpi                       7.266869                       # CPI: Cycles Per Instruction
system.switch_cpus.cpi_total                 7.266869                       # CPI: Total CPI of All Threads
system.switch_cpus.fp_regfile_reads            429377                       # number of floating regfile reads
system.switch_cpus.fp_regfile_writes           475809                       # number of floating regfile writes
system.switch_cpus.idleCycles                   37305                       # Total number of cycles that the CPU has spent unscheduled due to idling
system.switch_cpus.iew.branchMispredicts       356901                       # Number of branch mispredicts detected at execute
system.switch_cpus.iew.exec_branches          3860445                       # Number of branches executed
system.switch_cpus.iew.exec_nop                     0                       # number of nop insts executed
system.switch_cpus.iew.exec_rate             0.570145                       # Inst execution rate
system.switch_cpus.iew.exec_refs              8495459                       # number of memory reference insts executed
system.switch_cpus.iew.exec_stores            3754920                       # Number of stores executed
system.switch_cpus.iew.exec_swp                     0                       # number of swp insts executed
system.switch_cpus.iew.iewBlockCycles         3792271                       # Number of cycles IEW is blocking
system.switch_cpus.iew.iewDispLoadInsts       5235818                       # Number of dispatched load instructions
system.switch_cpus.iew.iewDispNonSpecInsts           32                       # Number of dispatched non-speculative instructions
system.switch_cpus.iew.iewDispSquashedInsts        58377                       # Number of squashed instructions skipped by dispatch
system.switch_cpus.iew.iewDispStoreInsts      4376944                       # Number of dispatched store instructions
system.switch_cpus.iew.iewDispatchedInsts     47476898                       # Number of instructions dispatched to IQ
system.switch_cpus.iew.iewExecLoadInsts       4740539                       # Number of load instructions executed
system.switch_cpus.iew.iewExecSquashedInsts       704439                       # Number of squashed instructions skipped in execute
system.switch_cpus.iew.iewExecutedInsts      41431718                       # Number of executed instructions
system.switch_cpus.iew.iewIQFullEvents           1528                       # Number of times the IQ has become full, causing a stall
system.switch_cpus.iew.iewIdleCycles                0                       # Number of cycles IEW is idle
system.switch_cpus.iew.iewLSQFullEvents         30078                       # Number of times the LSQ has become full, causing a stall
system.switch_cpus.iew.iewSquashCycles         413140                       # Number of cycles IEW is squashing
system.switch_cpus.iew.iewUnblockCycles         30862                       # Number of cycles IEW is unblocking
system.switch_cpus.iew.memOrderViolationEvents         1685                       # Number of memory order violations
system.switch_cpus.iew.predictedNotTakenIncorrect       194660                       # Number of branches that were predicted not taken incorrectly
system.switch_cpus.iew.predictedTakenIncorrect       162241                       # Number of branches that were predicted taken incorrectly
system.switch_cpus.iew.wb_consumers          49016382                       # num instructions consuming a value
system.switch_cpus.iew.wb_count              38986994                       # cumulative count of insts written-back
system.switch_cpus.iew.wb_fanout             0.635904                       # average fanout of values written-back
system.switch_cpus.iew.wb_producers          31169709                       # num instructions producing a value
system.switch_cpus.iew.wb_rate               0.536503                       # insts written-back per cycle
system.switch_cpus.iew.wb_sent               41259066                       # cumulative count of insts sent to commit
system.switch_cpus.int_regfile_reads         60063171                       # number of integer regfile reads
system.switch_cpus.int_regfile_writes        33216820                       # number of integer regfile writes
system.switch_cpus.ipc                       0.137611                       # IPC: Instructions Per Cycle
system.switch_cpus.ipc_total                 0.137611                       # IPC: Total IPC of All Threads
system.switch_cpus.iq.FU_type_0::No_OpClass       213242      0.51%      0.51% # Type of FU issued
system.switch_cpus.iq.FU_type_0::IntAlu      32817824     77.89%     78.39% # Type of FU issued
system.switch_cpus.iq.FU_type_0::IntMult       265269      0.63%     79.02% # Type of FU issued
system.switch_cpus.iq.FU_type_0::IntDiv             7      0.00%     79.02% # Type of FU issued
system.switch_cpus.iq.FU_type_0::FloatAdd        86122      0.20%     79.23% # Type of FU issued
system.switch_cpus.iq.FU_type_0::FloatCmp            0      0.00%     79.23% # Type of FU issued
system.switch_cpus.iq.FU_type_0::FloatCvt            0      0.00%     79.23% # Type of FU issued
system.switch_cpus.iq.FU_type_0::FloatMult            0      0.00%     79.23% # Type of FU issued
system.switch_cpus.iq.FU_type_0::FloatMultAcc            0      0.00%     79.23% # Type of FU issued
system.switch_cpus.iq.FU_type_0::FloatDiv            0      0.00%     79.23% # Type of FU issued
system.switch_cpus.iq.FU_type_0::FloatMisc            0      0.00%     79.23% # Type of FU issued
system.switch_cpus.iq.FU_type_0::FloatSqrt            0      0.00%     79.23% # Type of FU issued
system.switch_cpus.iq.FU_type_0::SimdAdd            0      0.00%     79.23% # Type of FU issued
system.switch_cpus.iq.FU_type_0::SimdAddAcc            0      0.00%     79.23% # Type of FU issued
system.switch_cpus.iq.FU_type_0::SimdAlu         1256      0.00%     79.23% # Type of FU issued
system.switch_cpus.iq.FU_type_0::SimdCmp            0      0.00%     79.23% # Type of FU issued
system.switch_cpus.iq.FU_type_0::SimdCvt           16      0.00%     79.23% # Type of FU issued
system.switch_cpus.iq.FU_type_0::SimdMisc        28705      0.07%     79.30% # Type of FU issued
system.switch_cpus.iq.FU_type_0::SimdMult            0      0.00%     79.30% # Type of FU issued
system.switch_cpus.iq.FU_type_0::SimdMultAcc            0      0.00%     79.30% # Type of FU issued
system.switch_cpus.iq.FU_type_0::SimdShift            0      0.00%     79.30% # Type of FU issued
system.switch_cpus.iq.FU_type_0::SimdShiftAcc            0      0.00%     79.30% # Type of FU issued
system.switch_cpus.iq.FU_type_0::SimdDiv            0      0.00%     79.30% # Type of FU issued
system.switch_cpus.iq.FU_type_0::SimdSqrt            0      0.00%     79.30% # Type of FU issued
system.switch_cpus.iq.FU_type_0::SimdFloatAdd            0      0.00%     79.30% # Type of FU issued
system.switch_cpus.iq.FU_type_0::SimdFloatAlu            0      0.00%     79.30% # Type of FU issued
system.switch_cpus.iq.FU_type_0::SimdFloatCmp            0      0.00%     79.30% # Type of FU issued
system.switch_cpus.iq.FU_type_0::SimdFloatCvt            0      0.00%     79.30% # Type of FU issued
system.switch_cpus.iq.FU_type_0::SimdFloatDiv            0      0.00%     79.30% # Type of FU issued
system.switch_cpus.iq.FU_type_0::SimdFloatMisc            0      0.00%     79.30% # Type of FU issued
system.switch_cpus.iq.FU_type_0::SimdFloatMult            0      0.00%     79.30% # Type of FU issued
system.switch_cpus.iq.FU_type_0::SimdFloatMultAcc            0      0.00%     79.30% # Type of FU issued
system.switch_cpus.iq.FU_type_0::SimdFloatSqrt            0      0.00%     79.30% # Type of FU issued
system.switch_cpus.iq.FU_type_0::SimdReduceAdd            0      0.00%     79.30% # Type of FU issued
system.switch_cpus.iq.FU_type_0::SimdReduceAlu            0      0.00%     79.30% # Type of FU issued
system.switch_cpus.iq.FU_type_0::SimdReduceCmp            0      0.00%     79.30% # Type of FU issued
system.switch_cpus.iq.FU_type_0::SimdFloatReduceAdd            0      0.00%     79.30% # Type of FU issued
system.switch_cpus.iq.FU_type_0::SimdFloatReduceCmp            0      0.00%     79.30% # Type of FU issued
system.switch_cpus.iq.FU_type_0::SimdAes            0      0.00%     79.30% # Type of FU issued
system.switch_cpus.iq.FU_type_0::SimdAesMix            0      0.00%     79.30% # Type of FU issued
system.switch_cpus.iq.FU_type_0::SimdSha1Hash            0      0.00%     79.30% # Type of FU issued
system.switch_cpus.iq.FU_type_0::SimdSha1Hash2            0      0.00%     79.30% # Type of FU issued
system.switch_cpus.iq.FU_type_0::SimdSha256Hash            0      0.00%     79.30% # Type of FU issued
system.switch_cpus.iq.FU_type_0::SimdSha256Hash2            0      0.00%     79.30% # Type of FU issued
system.switch_cpus.iq.FU_type_0::SimdShaSigma2            0      0.00%     79.30% # Type of FU issued
system.switch_cpus.iq.FU_type_0::SimdShaSigma3            0      0.00%     79.30% # Type of FU issued
system.switch_cpus.iq.FU_type_0::SimdPredAlu            0      0.00%     79.30% # Type of FU issued
system.switch_cpus.iq.FU_type_0::MemRead      4419766     10.49%     89.79% # Type of FU issued
system.switch_cpus.iq.FU_type_0::MemWrite      3460999      8.21%     98.00% # Type of FU issued
system.switch_cpus.iq.FU_type_0::FloatMemRead       438843      1.04%     99.04% # Type of FU issued
system.switch_cpus.iq.FU_type_0::FloatMemWrite       404111      0.96%    100.00% # Type of FU issued
system.switch_cpus.iq.FU_type_0::IprAccess            0      0.00%    100.00% # Type of FU issued
system.switch_cpus.iq.FU_type_0::InstPrefetch            0      0.00%    100.00% # Type of FU issued
system.switch_cpus.iq.FU_type_0::total       42136160                       # Type of FU issued
system.switch_cpus.iq.fp_alu_accesses         1102222                       # Number of floating point alu accesses
system.switch_cpus.iq.fp_inst_queue_reads      2071473                       # Number of floating instruction queue reads
system.switch_cpus.iq.fp_inst_queue_wakeup_accesses       862732                       # Number of floating instruction queue wakeup accesses
system.switch_cpus.iq.fp_inst_queue_writes      2169290                       # Number of floating instruction queue writes
system.switch_cpus.iq.fu_busy_cnt              532340                       # FU busy when requested
system.switch_cpus.iq.fu_busy_rate           0.012634                       # FU busy rate (busy events/executed inst)
system.switch_cpus.iq.fu_full::No_OpClass            0      0.00%      0.00% # attempts to use FU when none available
system.switch_cpus.iq.fu_full::IntAlu          309155     58.07%     58.07% # attempts to use FU when none available
system.switch_cpus.iq.fu_full::IntMult              0      0.00%     58.07% # attempts to use FU when none available
system.switch_cpus.iq.fu_full::IntDiv               0      0.00%     58.07% # attempts to use FU when none available
system.switch_cpus.iq.fu_full::FloatAdd             0      0.00%     58.07% # attempts to use FU when none available
system.switch_cpus.iq.fu_full::FloatCmp             0      0.00%     58.07% # attempts to use FU when none available
system.switch_cpus.iq.fu_full::FloatCvt             0      0.00%     58.07% # attempts to use FU when none available
system.switch_cpus.iq.fu_full::FloatMult            0      0.00%     58.07% # attempts to use FU when none available
system.switch_cpus.iq.fu_full::FloatMultAcc            0      0.00%     58.07% # attempts to use FU when none available
system.switch_cpus.iq.fu_full::FloatDiv             0      0.00%     58.07% # attempts to use FU when none available
system.switch_cpus.iq.fu_full::FloatMisc            0      0.00%     58.07% # attempts to use FU when none available
system.switch_cpus.iq.fu_full::FloatSqrt            0      0.00%     58.07% # attempts to use FU when none available
system.switch_cpus.iq.fu_full::SimdAdd              0      0.00%     58.07% # attempts to use FU when none available
system.switch_cpus.iq.fu_full::SimdAddAcc            0      0.00%     58.07% # attempts to use FU when none available
system.switch_cpus.iq.fu_full::SimdAlu              1      0.00%     58.07% # attempts to use FU when none available
system.switch_cpus.iq.fu_full::SimdCmp              0      0.00%     58.07% # attempts to use FU when none available
system.switch_cpus.iq.fu_full::SimdCvt              0      0.00%     58.07% # attempts to use FU when none available
system.switch_cpus.iq.fu_full::SimdMisc             0      0.00%     58.07% # attempts to use FU when none available
system.switch_cpus.iq.fu_full::SimdMult             0      0.00%     58.07% # attempts to use FU when none available
system.switch_cpus.iq.fu_full::SimdMultAcc            0      0.00%     58.07% # attempts to use FU when none available
system.switch_cpus.iq.fu_full::SimdShift            0      0.00%     58.07% # attempts to use FU when none available
system.switch_cpus.iq.fu_full::SimdShiftAcc            0      0.00%     58.07% # attempts to use FU when none available
system.switch_cpus.iq.fu_full::SimdDiv              0      0.00%     58.07% # attempts to use FU when none available
system.switch_cpus.iq.fu_full::SimdSqrt             0      0.00%     58.07% # attempts to use FU when none available
system.switch_cpus.iq.fu_full::SimdFloatAdd            0      0.00%     58.07% # attempts to use FU when none available
system.switch_cpus.iq.fu_full::SimdFloatAlu            0      0.00%     58.07% # attempts to use FU when none available
system.switch_cpus.iq.fu_full::SimdFloatCmp            0      0.00%     58.07% # attempts to use FU when none available
system.switch_cpus.iq.fu_full::SimdFloatCvt            0      0.00%     58.07% # attempts to use FU when none available
system.switch_cpus.iq.fu_full::SimdFloatDiv            0      0.00%     58.07% # attempts to use FU when none available
system.switch_cpus.iq.fu_full::SimdFloatMisc            0      0.00%     58.07% # attempts to use FU when none available
system.switch_cpus.iq.fu_full::SimdFloatMult            0      0.00%     58.07% # attempts to use FU when none available
system.switch_cpus.iq.fu_full::SimdFloatMultAcc            0      0.00%     58.07% # attempts to use FU when none available
system.switch_cpus.iq.fu_full::SimdFloatSqrt            0      0.00%     58.07% # attempts to use FU when none available
system.switch_cpus.iq.fu_full::SimdReduceAdd            0      0.00%     58.07% # attempts to use FU when none available
system.switch_cpus.iq.fu_full::SimdReduceAlu            0      0.00%     58.07% # attempts to use FU when none available
system.switch_cpus.iq.fu_full::SimdReduceCmp            0      0.00%     58.07% # attempts to use FU when none available
system.switch_cpus.iq.fu_full::SimdFloatReduceAdd            0      0.00%     58.07% # attempts to use FU when none available
system.switch_cpus.iq.fu_full::SimdFloatReduceCmp            0      0.00%     58.07% # attempts to use FU when none available
system.switch_cpus.iq.fu_full::SimdAes              0      0.00%     58.07% # attempts to use FU when none available
system.switch_cpus.iq.fu_full::SimdAesMix            0      0.00%     58.07% # attempts to use FU when none available
system.switch_cpus.iq.fu_full::SimdSha1Hash            0      0.00%     58.07% # attempts to use FU when none available
system.switch_cpus.iq.fu_full::SimdSha1Hash2            0      0.00%     58.07% # attempts to use FU when none available
system.switch_cpus.iq.fu_full::SimdSha256Hash            0      0.00%     58.07% # attempts to use FU when none available
system.switch_cpus.iq.fu_full::SimdSha256Hash2            0      0.00%     58.07% # attempts to use FU when none available
system.switch_cpus.iq.fu_full::SimdShaSigma2            0      0.00%     58.07% # attempts to use FU when none available
system.switch_cpus.iq.fu_full::SimdShaSigma3            0      0.00%     58.07% # attempts to use FU when none available
system.switch_cpus.iq.fu_full::SimdPredAlu            0      0.00%     58.07% # attempts to use FU when none available
system.switch_cpus.iq.fu_full::MemRead          22703      4.26%     62.34% # attempts to use FU when none available
system.switch_cpus.iq.fu_full::MemWrite         58188     10.93%     73.27% # attempts to use FU when none available
system.switch_cpus.iq.fu_full::FloatMemRead       107917     20.27%     93.54% # attempts to use FU when none available
system.switch_cpus.iq.fu_full::FloatMemWrite        34376      6.46%    100.00% # attempts to use FU when none available
system.switch_cpus.iq.fu_full::IprAccess            0      0.00%    100.00% # attempts to use FU when none available
system.switch_cpus.iq.fu_full::InstPrefetch            0      0.00%    100.00% # attempts to use FU when none available
system.switch_cpus.iq.int_alu_accesses       41353036                       # Number of integer alu accesses
system.switch_cpus.iq.int_inst_queue_reads    155402382                       # Number of integer instruction queue reads
system.switch_cpus.iq.int_inst_queue_wakeup_accesses     38124262                       # Number of integer instruction queue wakeup accesses
system.switch_cpus.iq.int_inst_queue_writes     77164352                       # Number of integer instruction queue writes
system.switch_cpus.iq.iqInstsAdded           47467690                       # Number of instructions added to the IQ (excludes non-spec)
system.switch_cpus.iq.iqInstsIssued          42136160                       # Number of instructions issued
system.switch_cpus.iq.iqNonSpecInstsAdded         9208                       # Number of non-speculative instructions added to the IQ
system.switch_cpus.iq.iqSquashedInstsExamined     31855159                       # Number of squashed instructions iterated over during squash; mainly for profiling
system.switch_cpus.iq.iqSquashedInstsIssued        37772                       # Number of squashed instructions issued
system.switch_cpus.iq.iqSquashedNonSpecRemoved         9083                       # Number of squashed non-spec instructions that were removed
system.switch_cpus.iq.iqSquashedOperandsExamined     26396966                       # Number of squashed operands that are examined and possibly removed from graph
system.switch_cpus.iq.issued_per_cycle::samples     72631426                       # Number of insts issued each cycle
system.switch_cpus.iq.issued_per_cycle::mean     0.580137                       # Number of insts issued each cycle
system.switch_cpus.iq.issued_per_cycle::stdev     1.613794                       # Number of insts issued each cycle
system.switch_cpus.iq.issued_per_cycle::underflows            0      0.00%      0.00% # Number of insts issued each cycle
system.switch_cpus.iq.issued_per_cycle::0     62289105     85.76%     85.76% # Number of insts issued each cycle
system.switch_cpus.iq.issued_per_cycle::1      1167805      1.61%     87.37% # Number of insts issued each cycle
system.switch_cpus.iq.issued_per_cycle::2      1230885      1.69%     89.06% # Number of insts issued each cycle
system.switch_cpus.iq.issued_per_cycle::3      2560652      3.53%     92.59% # Number of insts issued each cycle
system.switch_cpus.iq.issued_per_cycle::4      1102890      1.52%     94.11% # Number of insts issued each cycle
system.switch_cpus.iq.issued_per_cycle::5      1002706      1.38%     95.49% # Number of insts issued each cycle
system.switch_cpus.iq.issued_per_cycle::6      2145135      2.95%     98.44% # Number of insts issued each cycle
system.switch_cpus.iq.issued_per_cycle::7       529255      0.73%     99.17% # Number of insts issued each cycle
system.switch_cpus.iq.issued_per_cycle::8       602993      0.83%    100.00% # Number of insts issued each cycle
system.switch_cpus.iq.issued_per_cycle::overflows            0      0.00%    100.00% # Number of insts issued each cycle
system.switch_cpus.iq.issued_per_cycle::min_value            0                       # Number of insts issued each cycle
system.switch_cpus.iq.issued_per_cycle::max_value            8                       # Number of insts issued each cycle
system.switch_cpus.iq.issued_per_cycle::total     72631426                       # Number of insts issued each cycle
system.switch_cpus.iq.rate                   0.579839                       # Inst issue rate
system.switch_cpus.iq.vec_alu_accesses              0                       # Number of vector alu accesses
system.switch_cpus.iq.vec_inst_queue_reads            0                       # Number of vector instruction queue reads
system.switch_cpus.iq.vec_inst_queue_wakeup_accesses            0                       # Number of vector instruction queue wakeup accesses
system.switch_cpus.iq.vec_inst_queue_writes            0                       # Number of vector instruction queue writes
system.switch_cpus.memDep0.conflictingLoads       483042                       # Number of conflicting loads.
system.switch_cpus.memDep0.conflictingStores       174942                       # Number of conflicting stores.
system.switch_cpus.memDep0.insertedLoads      5235818                       # Number of loads inserted to the mem dependence unit.
system.switch_cpus.memDep0.insertedStores      4376944                       # Number of stores inserted to the mem dependence unit.
system.switch_cpus.misc_regfile_reads        16662622                       # number of misc regfile reads
system.switch_cpus.numCycles                 72668731                       # number of cpu cycles simulated
system.switch_cpus.numWorkItemsCompleted            0                       # number of work items this cpu completed
system.switch_cpus.numWorkItemsStarted              0                       # number of work items this cpu started
system.switch_cpus.timesIdled                     311                       # Number of times that the entire CPU went into an idle state and unscheduled itself
system.tol2bus.snoop_filter.hit_multi_requests            6                       # Number of requests hitting in the snoop filter with multiple (>1) holders of the requested data.
system.tol2bus.snoop_filter.hit_multi_snoops            0                       # Number of snoops hitting in the snoop filter with multiple (>1) holders of the requested data.
system.tol2bus.snoop_filter.hit_single_requests       367265                       # Number of requests hitting in the snoop filter with a single holder of the requested data.
system.tol2bus.snoop_filter.hit_single_snoops          169                       # Number of snoops hitting in the snoop filter with a single holder of the requested data.
system.tol2bus.snoop_filter.tot_requests       734690                       # Total number of requests made to the snoop filter.
system.tol2bus.snoop_filter.tot_snoops            169                       # Total number of snoops made to the snoop filter.
system.clk_domain.clock                          1000                       # Clock period in ticks
system.cpu.branchPred.lookups                       0                       # Number of BP lookups
system.cpu.branchPred.condPredicted                 0                       # Number of conditional branches predicted
system.cpu.branchPred.condIncorrect                 0                       # Number of conditional branches incorrect
system.cpu.branchPred.BTBLookups                    0                       # Number of BTB lookups
system.cpu.branchPred.BTBHits                       0                       # Number of BTB hits
system.cpu.branchPred.BTBHitPct                   nan                       # BTB Hit Percentage
system.cpu.branchPred.RASUsed                       0                       # Number of times the RAS was used to get a target.
system.cpu.branchPred.RASIncorrect                  0                       # Number of incorrect RAS predictions.
system.cpu.branchPred.indirectLookups               0                       # Number of indirect predictor lookups.
system.cpu.branchPred.indirectHits                  0                       # Number of indirect target hits.
system.cpu.branchPred.indirectMisses                0                       # Number of indirect misses.
system.cpu.branchPred.indirectMispredicted            0                       # Number of mispredicted indirect branches.
system.cpu.dcache.demand_hits::.switch_cpus.data      5037798                       # number of demand (read+write) hits
system.cpu.dcache.demand_hits::total          5037798                       # number of demand (read+write) hits
system.cpu.dcache.overall_hits::.switch_cpus.data      5125741                       # number of overall hits
system.cpu.dcache.overall_hits::total         5125741                       # number of overall hits
system.cpu.dcache.demand_misses::.switch_cpus.data       370955                       # number of demand (read+write) misses
system.cpu.dcache.demand_misses::total         370955                       # number of demand (read+write) misses
system.cpu.dcache.overall_misses::.switch_cpus.data       373364                       # number of overall misses
system.cpu.dcache.overall_misses::total        373364                       # number of overall misses
system.cpu.dcache.demand_miss_latency::.switch_cpus.data  29456026496                       # number of demand (read+write) miss cycles
system.cpu.dcache.demand_miss_latency::total  29456026496                       # number of demand (read+write) miss cycles
system.cpu.dcache.overall_miss_latency::.switch_cpus.data  29456026496                       # number of overall miss cycles
system.cpu.dcache.overall_miss_latency::total  29456026496                       # number of overall miss cycles
system.cpu.dcache.demand_accesses::.switch_cpus.data      5408753                       # number of demand (read+write) accesses
system.cpu.dcache.demand_accesses::total      5408753                       # number of demand (read+write) accesses
system.cpu.dcache.overall_accesses::.switch_cpus.data      5499105                       # number of overall (read+write) accesses
system.cpu.dcache.overall_accesses::total      5499105                       # number of overall (read+write) accesses
system.cpu.dcache.demand_miss_rate::.switch_cpus.data     0.068584                       # miss rate for demand accesses
system.cpu.dcache.demand_miss_rate::total     0.068584                       # miss rate for demand accesses
system.cpu.dcache.overall_miss_rate::.switch_cpus.data     0.067895                       # miss rate for overall accesses
system.cpu.dcache.overall_miss_rate::total     0.067895                       # miss rate for overall accesses
system.cpu.dcache.demand_avg_miss_latency::.switch_cpus.data 79405.929280                       # average overall miss latency
system.cpu.dcache.demand_avg_miss_latency::total 79405.929280                       # average overall miss latency
system.cpu.dcache.overall_avg_miss_latency::.switch_cpus.data 78893.590427                       # average overall miss latency
system.cpu.dcache.overall_avg_miss_latency::total 78893.590427                       # average overall miss latency
system.cpu.dcache.blocked_cycles::no_mshrs          618                       # number of cycles access was blocked
system.cpu.dcache.blocked_cycles::no_targets          444                       # number of cycles access was blocked
system.cpu.dcache.blocked::no_mshrs                24                       # number of cycles access was blocked
system.cpu.dcache.blocked::no_targets               9                       # number of cycles access was blocked
system.cpu.dcache.avg_blocked_cycles::no_mshrs    25.750000                       # average number of cycles each access was blocked
system.cpu.dcache.avg_blocked_cycles::no_targets    49.333333                       # average number of cycles each access was blocked
system.cpu.dcache.writebacks::.writebacks       364369                       # number of writebacks
system.cpu.dcache.writebacks::total            364369                       # number of writebacks
system.cpu.dcache.demand_mshr_hits::.switch_cpus.data         4814                       # number of demand (read+write) MSHR hits
system.cpu.dcache.demand_mshr_hits::total         4814                       # number of demand (read+write) MSHR hits
system.cpu.dcache.overall_mshr_hits::.switch_cpus.data         4814                       # number of overall MSHR hits
system.cpu.dcache.overall_mshr_hits::total         4814                       # number of overall MSHR hits
system.cpu.dcache.demand_mshr_misses::.switch_cpus.data       366141                       # number of demand (read+write) MSHR misses
system.cpu.dcache.demand_mshr_misses::total       366141                       # number of demand (read+write) MSHR misses
system.cpu.dcache.overall_mshr_misses::.switch_cpus.data       366832                       # number of overall MSHR misses
system.cpu.dcache.overall_mshr_misses::total       366832                       # number of overall MSHR misses
system.cpu.dcache.demand_mshr_miss_latency::.switch_cpus.data  29011097496                       # number of demand (read+write) MSHR miss cycles
system.cpu.dcache.demand_mshr_miss_latency::total  29011097496                       # number of demand (read+write) MSHR miss cycles
system.cpu.dcache.overall_mshr_miss_latency::.switch_cpus.data  29053306996                       # number of overall MSHR miss cycles
system.cpu.dcache.overall_mshr_miss_latency::total  29053306996                       # number of overall MSHR miss cycles
system.cpu.dcache.demand_mshr_miss_rate::.switch_cpus.data     0.067694                       # mshr miss rate for demand accesses
system.cpu.dcache.demand_mshr_miss_rate::total     0.067694                       # mshr miss rate for demand accesses
system.cpu.dcache.overall_mshr_miss_rate::.switch_cpus.data     0.066708                       # mshr miss rate for overall accesses
system.cpu.dcache.overall_mshr_miss_rate::total     0.066708                       # mshr miss rate for overall accesses
system.cpu.dcache.demand_avg_mshr_miss_latency::.switch_cpus.data 79234.768835                       # average overall mshr miss latency
system.cpu.dcache.demand_avg_mshr_miss_latency::total 79234.768835                       # average overall mshr miss latency
system.cpu.dcache.overall_avg_mshr_miss_latency::.switch_cpus.data 79200.579546                       # average overall mshr miss latency
system.cpu.dcache.overall_avg_mshr_miss_latency::total 79200.579546                       # average overall mshr miss latency
system.cpu.dcache.replacements                 366831                       # number of replacements
system.cpu.dcache.ReadReq_hits::.switch_cpus.data      4396044                       # number of ReadReq hits
system.cpu.dcache.ReadReq_hits::total         4396044                       # number of ReadReq hits
system.cpu.dcache.ReadReq_misses::.switch_cpus.data         9118                       # number of ReadReq misses
system.cpu.dcache.ReadReq_misses::total          9118                       # number of ReadReq misses
system.cpu.dcache.ReadReq_miss_latency::.switch_cpus.data    148868000                       # number of ReadReq miss cycles
system.cpu.dcache.ReadReq_miss_latency::total    148868000                       # number of ReadReq miss cycles
system.cpu.dcache.ReadReq_accesses::.switch_cpus.data      4405162                       # number of ReadReq accesses(hits+misses)
system.cpu.dcache.ReadReq_accesses::total      4405162                       # number of ReadReq accesses(hits+misses)
system.cpu.dcache.ReadReq_miss_rate::.switch_cpus.data     0.002070                       # miss rate for ReadReq accesses
system.cpu.dcache.ReadReq_miss_rate::total     0.002070                       # miss rate for ReadReq accesses
system.cpu.dcache.ReadReq_avg_miss_latency::.switch_cpus.data 16326.826058                       # average ReadReq miss latency
system.cpu.dcache.ReadReq_avg_miss_latency::total 16326.826058                       # average ReadReq miss latency
system.cpu.dcache.ReadReq_mshr_hits::.switch_cpus.data         4810                       # number of ReadReq MSHR hits
system.cpu.dcache.ReadReq_mshr_hits::total         4810                       # number of ReadReq MSHR hits
system.cpu.dcache.ReadReq_mshr_misses::.switch_cpus.data         4308                       # number of ReadReq MSHR misses
system.cpu.dcache.ReadReq_mshr_misses::total         4308                       # number of ReadReq MSHR misses
system.cpu.dcache.ReadReq_mshr_miss_latency::.switch_cpus.data     66052000                       # number of ReadReq MSHR miss cycles
system.cpu.dcache.ReadReq_mshr_miss_latency::total     66052000                       # number of ReadReq MSHR miss cycles
system.cpu.dcache.ReadReq_mshr_miss_rate::.switch_cpus.data     0.000978                       # mshr miss rate for ReadReq accesses
system.cpu.dcache.ReadReq_mshr_miss_rate::total     0.000978                       # mshr miss rate for ReadReq accesses
system.cpu.dcache.ReadReq_avg_mshr_miss_latency::.switch_cpus.data 15332.404828                       # average ReadReq mshr miss latency
system.cpu.dcache.ReadReq_avg_mshr_miss_latency::total 15332.404828                       # average ReadReq mshr miss latency
system.cpu.dcache.WriteReq_hits::.switch_cpus.data       641754                       # number of WriteReq hits
system.cpu.dcache.WriteReq_hits::total         641754                       # number of WriteReq hits
system.cpu.dcache.WriteReq_misses::.switch_cpus.data       361837                       # number of WriteReq misses
system.cpu.dcache.WriteReq_misses::total       361837                       # number of WriteReq misses
system.cpu.dcache.WriteReq_miss_latency::.switch_cpus.data  29307158496                       # number of WriteReq miss cycles
system.cpu.dcache.WriteReq_miss_latency::total  29307158496                       # number of WriteReq miss cycles
system.cpu.dcache.WriteReq_accesses::.switch_cpus.data      1003591                       # number of WriteReq accesses(hits+misses)
system.cpu.dcache.WriteReq_accesses::total      1003591                       # number of WriteReq accesses(hits+misses)
system.cpu.dcache.WriteReq_miss_rate::.switch_cpus.data     0.360542                       # miss rate for WriteReq accesses
system.cpu.dcache.WriteReq_miss_rate::total     0.360542                       # miss rate for WriteReq accesses
system.cpu.dcache.WriteReq_avg_miss_latency::.switch_cpus.data 80995.471707                       # average WriteReq miss latency
system.cpu.dcache.WriteReq_avg_miss_latency::total 80995.471707                       # average WriteReq miss latency
system.cpu.dcache.WriteReq_mshr_hits::.switch_cpus.data            4                       # number of WriteReq MSHR hits
system.cpu.dcache.WriteReq_mshr_hits::total            4                       # number of WriteReq MSHR hits
system.cpu.dcache.WriteReq_mshr_misses::.switch_cpus.data       361833                       # number of WriteReq MSHR misses
system.cpu.dcache.WriteReq_mshr_misses::total       361833                       # number of WriteReq MSHR misses
system.cpu.dcache.WriteReq_mshr_miss_latency::.switch_cpus.data  28945045496                       # number of WriteReq MSHR miss cycles
system.cpu.dcache.WriteReq_mshr_miss_latency::total  28945045496                       # number of WriteReq MSHR miss cycles
system.cpu.dcache.WriteReq_mshr_miss_rate::.switch_cpus.data     0.360538                       # mshr miss rate for WriteReq accesses
system.cpu.dcache.WriteReq_mshr_miss_rate::total     0.360538                       # mshr miss rate for WriteReq accesses
system.cpu.dcache.WriteReq_avg_mshr_miss_latency::.switch_cpus.data 79995.593260                       # average WriteReq mshr miss latency
system.cpu.dcache.WriteReq_avg_mshr_miss_latency::total 79995.593260                       # average WriteReq mshr miss latency
system.cpu.dcache.SoftPFReq_hits::.switch_cpus.data        87943                       # number of SoftPFReq hits
system.cpu.dcache.SoftPFReq_hits::total         87943                       # number of SoftPFReq hits
system.cpu.dcache.SoftPFReq_misses::.switch_cpus.data         2409                       # number of SoftPFReq misses
system.cpu.dcache.SoftPFReq_misses::total         2409                       # number of SoftPFReq misses
system.cpu.dcache.SoftPFReq_accesses::.switch_cpus.data        90352                       # number of SoftPFReq accesses(hits+misses)
system.cpu.dcache.SoftPFReq_accesses::total        90352                       # number of SoftPFReq accesses(hits+misses)
system.cpu.dcache.SoftPFReq_miss_rate::.switch_cpus.data     0.026662                       # miss rate for SoftPFReq accesses
system.cpu.dcache.SoftPFReq_miss_rate::total     0.026662                       # miss rate for SoftPFReq accesses
system.cpu.dcache.SoftPFReq_mshr_misses::.switch_cpus.data          691                       # number of SoftPFReq MSHR misses
system.cpu.dcache.SoftPFReq_mshr_misses::total          691                       # number of SoftPFReq MSHR misses
system.cpu.dcache.SoftPFReq_mshr_miss_latency::.switch_cpus.data     42209500                       # number of SoftPFReq MSHR miss cycles
system.cpu.dcache.SoftPFReq_mshr_miss_latency::total     42209500                       # number of SoftPFReq MSHR miss cycles
system.cpu.dcache.SoftPFReq_mshr_miss_rate::.switch_cpus.data     0.007648                       # mshr miss rate for SoftPFReq accesses
system.cpu.dcache.SoftPFReq_mshr_miss_rate::total     0.007648                       # mshr miss rate for SoftPFReq accesses
system.cpu.dcache.SoftPFReq_avg_mshr_miss_latency::.switch_cpus.data 61084.659913                       # average SoftPFReq mshr miss latency
system.cpu.dcache.SoftPFReq_avg_mshr_miss_latency::total 61084.659913                       # average SoftPFReq mshr miss latency
system.cpu.dcache.power_state.pwrStateResidencyTicks::UNDEFINED  37367698500                       # Cumulative time (in ticks) in various power states
system.cpu.dcache.tags.tagsinuse          1023.139876                       # Cycle average of tags in use
system.cpu.dcache.tags.total_refs             5670279                       # Total number of references to valid blocks.
system.cpu.dcache.tags.sampled_refs            367855                       # Sample count of references to valid blocks.
system.cpu.dcache.tags.avg_refs             15.414440                       # Average number of references to valid blocks.
system.cpu.dcache.tags.warmup_cycle                 0                       # Cycle when the warmup percentage was hit.
system.cpu.dcache.tags.occ_blocks::.cpu.data   833.442148                       # Average occupied blocks per requestor
system.cpu.dcache.tags.occ_blocks::.switch_cpus.data   189.697728                       # Average occupied blocks per requestor
system.cpu.dcache.tags.occ_percent::.cpu.data     0.813908                       # Average percentage of cache occupancy
system.cpu.dcache.tags.occ_percent::.switch_cpus.data     0.185252                       # Average percentage of cache occupancy
system.cpu.dcache.tags.occ_percent::total     0.999160                       # Average percentage of cache occupancy
system.cpu.dcache.tags.occ_task_id_blocks::1024         1024                       # Occupied blocks per task id
system.cpu.dcache.tags.age_task_id_blocks_1024::0            2                       # Occupied blocks per task id
system.cpu.dcache.tags.age_task_id_blocks_1024::1           18                       # Occupied blocks per task id
system.cpu.dcache.tags.age_task_id_blocks_1024::2          849                       # Occupied blocks per task id
system.cpu.dcache.tags.age_task_id_blocks_1024::3          146                       # Occupied blocks per task id
system.cpu.dcache.tags.age_task_id_blocks_1024::4            9                       # Occupied blocks per task id
system.cpu.dcache.tags.occ_task_id_percent::1024            1                       # Percentage of cache occupancy per task id
system.cpu.dcache.tags.tag_accesses          11365042                       # Number of tag accesses
system.cpu.dcache.tags.data_accesses         11365042                       # Number of data accesses
system.cpu.dcache.tags.power_state.pwrStateResidencyTicks::UNDEFINED  37367698500                       # Cumulative time (in ticks) in various power states
system.cpu.dtb.rdAccesses                           0                       # TLB accesses on read requests
system.cpu.dtb.wrAccesses                           0                       # TLB accesses on write requests
system.cpu.dtb.rdMisses                             0                       # TLB misses on read requests
system.cpu.dtb.wrMisses                             0                       # TLB misses on write requests
system.cpu.dtb.walker.power_state.pwrStateResidencyTicks::UNDEFINED  37367698500                       # Cumulative time (in ticks) in various power states
system.cpu.dtb_walker_cache.blocked_cycles::no_mshrs            0                       # number of cycles access was blocked
system.cpu.dtb_walker_cache.blocked_cycles::no_targets            0                       # number of cycles access was blocked
system.cpu.dtb_walker_cache.blocked::no_mshrs            0                       # number of cycles access was blocked
system.cpu.dtb_walker_cache.blocked::no_targets            0                       # number of cycles access was blocked
system.cpu.dtb_walker_cache.avg_blocked_cycles::no_mshrs          nan                       # average number of cycles each access was blocked
system.cpu.dtb_walker_cache.avg_blocked_cycles::no_targets          nan                       # average number of cycles each access was blocked
system.cpu.dtb_walker_cache.replacements            0                       # number of replacements
system.cpu.dtb_walker_cache.power_state.pwrStateResidencyTicks::UNDEFINED  37367698500                       # Cumulative time (in ticks) in various power states
system.cpu.dtb_walker_cache.tags.tagsinuse            0                       # Cycle average of tags in use
system.cpu.dtb_walker_cache.tags.total_refs            0                       # Total number of references to valid blocks.
system.cpu.dtb_walker_cache.tags.sampled_refs            0                       # Sample count of references to valid blocks.
system.cpu.dtb_walker_cache.tags.avg_refs          nan                       # Average number of references to valid blocks.
system.cpu.dtb_walker_cache.tags.warmup_cycle            0                       # Cycle when the warmup percentage was hit.
system.cpu.dtb_walker_cache.tags.tag_accesses            0                       # Number of tag accesses
system.cpu.dtb_walker_cache.tags.data_accesses            0                       # Number of data accesses
system.cpu.dtb_walker_cache.tags.power_state.pwrStateResidencyTicks::UNDEFINED  37367698500                       # Cumulative time (in ticks) in various power states
system.cpu.icache.demand_hits::.switch_cpus.inst      3025612                       # number of demand (read+write) hits
system.cpu.icache.demand_hits::total          3025612                       # number of demand (read+write) hits
system.cpu.icache.overall_hits::.switch_cpus.inst      3025612                       # number of overall hits
system.cpu.icache.overall_hits::total         3025612                       # number of overall hits
system.cpu.icache.demand_misses::.switch_cpus.inst          748                       # number of demand (read+write) misses
system.cpu.icache.demand_misses::total            748                       # number of demand (read+write) misses
system.cpu.icache.overall_misses::.switch_cpus.inst          748                       # number of overall misses
system.cpu.icache.overall_misses::total           748                       # number of overall misses
system.cpu.icache.demand_miss_latency::.switch_cpus.inst     51659000                       # number of demand (read+write) miss cycles
system.cpu.icache.demand_miss_latency::total     51659000                       # number of demand (read+write) miss cycles
system.cpu.icache.overall_miss_latency::.switch_cpus.inst     51659000                       # number of overall miss cycles
system.cpu.icache.overall_miss_latency::total     51659000                       # number of overall miss cycles
system.cpu.icache.demand_accesses::.switch_cpus.inst      3026360                       # number of demand (read+write) accesses
system.cpu.icache.demand_accesses::total      3026360                       # number of demand (read+write) accesses
system.cpu.icache.overall_accesses::.switch_cpus.inst      3026360                       # number of overall (read+write) accesses
system.cpu.icache.overall_accesses::total      3026360                       # number of overall (read+write) accesses
system.cpu.icache.demand_miss_rate::.switch_cpus.inst     0.000247                       # miss rate for demand accesses
system.cpu.icache.demand_miss_rate::total     0.000247                       # miss rate for demand accesses
system.cpu.icache.overall_miss_rate::.switch_cpus.inst     0.000247                       # miss rate for overall accesses
system.cpu.icache.overall_miss_rate::total     0.000247                       # miss rate for overall accesses
system.cpu.icache.demand_avg_miss_latency::.switch_cpus.inst 69062.834225                       # average overall miss latency
system.cpu.icache.demand_avg_miss_latency::total 69062.834225                       # average overall miss latency
system.cpu.icache.overall_avg_miss_latency::.switch_cpus.inst 69062.834225                       # average overall miss latency
system.cpu.icache.overall_avg_miss_latency::total 69062.834225                       # average overall miss latency
system.cpu.icache.blocked_cycles::no_mshrs          329                       # number of cycles access was blocked
system.cpu.icache.blocked_cycles::no_targets            0                       # number of cycles access was blocked
system.cpu.icache.blocked::no_mshrs                 6                       # number of cycles access was blocked
system.cpu.icache.blocked::no_targets               0                       # number of cycles access was blocked
system.cpu.icache.avg_blocked_cycles::no_mshrs    54.833333                       # average number of cycles each access was blocked
system.cpu.icache.avg_blocked_cycles::no_targets          nan                       # average number of cycles each access was blocked
system.cpu.icache.writebacks::.writebacks          433                       # number of writebacks
system.cpu.icache.writebacks::total               433                       # number of writebacks
system.cpu.icache.demand_mshr_hits::.switch_cpus.inst          154                       # number of demand (read+write) MSHR hits
system.cpu.icache.demand_mshr_hits::total          154                       # number of demand (read+write) MSHR hits
system.cpu.icache.overall_mshr_hits::.switch_cpus.inst          154                       # number of overall MSHR hits
system.cpu.icache.overall_mshr_hits::total          154                       # number of overall MSHR hits
system.cpu.icache.demand_mshr_misses::.switch_cpus.inst          594                       # number of demand (read+write) MSHR misses
system.cpu.icache.demand_mshr_misses::total          594                       # number of demand (read+write) MSHR misses
system.cpu.icache.overall_mshr_misses::.switch_cpus.inst          594                       # number of overall MSHR misses
system.cpu.icache.overall_mshr_misses::total          594                       # number of overall MSHR misses
system.cpu.icache.demand_mshr_miss_latency::.switch_cpus.inst     41169500                       # number of demand (read+write) MSHR miss cycles
system.cpu.icache.demand_mshr_miss_latency::total     41169500                       # number of demand (read+write) MSHR miss cycles
system.cpu.icache.overall_mshr_miss_latency::.switch_cpus.inst     41169500                       # number of overall MSHR miss cycles
system.cpu.icache.overall_mshr_miss_latency::total     41169500                       # number of overall MSHR miss cycles
system.cpu.icache.demand_mshr_miss_rate::.switch_cpus.inst     0.000196                       # mshr miss rate for demand accesses
system.cpu.icache.demand_mshr_miss_rate::total     0.000196                       # mshr miss rate for demand accesses
system.cpu.icache.overall_mshr_miss_rate::.switch_cpus.inst     0.000196                       # mshr miss rate for overall accesses
system.cpu.icache.overall_mshr_miss_rate::total     0.000196                       # mshr miss rate for overall accesses
system.cpu.icache.demand_avg_mshr_miss_latency::.switch_cpus.inst 69308.922559                       # average overall mshr miss latency
system.cpu.icache.demand_avg_mshr_miss_latency::total 69308.922559                       # average overall mshr miss latency
system.cpu.icache.overall_avg_mshr_miss_latency::.switch_cpus.inst 69308.922559                       # average overall mshr miss latency
system.cpu.icache.overall_avg_mshr_miss_latency::total 69308.922559                       # average overall mshr miss latency
system.cpu.icache.replacements                    433                       # number of replacements
system.cpu.icache.ReadReq_hits::.switch_cpus.inst      3025612                       # number of ReadReq hits
system.cpu.icache.ReadReq_hits::total         3025612                       # number of ReadReq hits
system.cpu.icache.ReadReq_misses::.switch_cpus.inst          748                       # number of ReadReq misses
system.cpu.icache.ReadReq_misses::total           748                       # number of ReadReq misses
system.cpu.icache.ReadReq_miss_latency::.switch_cpus.inst     51659000                       # number of ReadReq miss cycles
system.cpu.icache.ReadReq_miss_latency::total     51659000                       # number of ReadReq miss cycles
system.cpu.icache.ReadReq_accesses::.switch_cpus.inst      3026360                       # number of ReadReq accesses(hits+misses)
system.cpu.icache.ReadReq_accesses::total      3026360                       # number of ReadReq accesses(hits+misses)
system.cpu.icache.ReadReq_miss_rate::.switch_cpus.inst     0.000247                       # miss rate for ReadReq accesses
system.cpu.icache.ReadReq_miss_rate::total     0.000247                       # miss rate for ReadReq accesses
system.cpu.icache.ReadReq_avg_miss_latency::.switch_cpus.inst 69062.834225                       # average ReadReq miss latency
system.cpu.icache.ReadReq_avg_miss_latency::total 69062.834225                       # average ReadReq miss latency
system.cpu.icache.ReadReq_mshr_hits::.switch_cpus.inst          154                       # number of ReadReq MSHR hits
system.cpu.icache.ReadReq_mshr_hits::total          154                       # number of ReadReq MSHR hits
system.cpu.icache.ReadReq_mshr_misses::.switch_cpus.inst          594                       # number of ReadReq MSHR misses
system.cpu.icache.ReadReq_mshr_misses::total          594                       # number of ReadReq MSHR misses
system.cpu.icache.ReadReq_mshr_miss_latency::.switch_cpus.inst     41169500                       # number of ReadReq MSHR miss cycles
system.cpu.icache.ReadReq_mshr_miss_latency::total     41169500                       # number of ReadReq MSHR miss cycles
system.cpu.icache.ReadReq_mshr_miss_rate::.switch_cpus.inst     0.000196                       # mshr miss rate for ReadReq accesses
system.cpu.icache.ReadReq_mshr_miss_rate::total     0.000196                       # mshr miss rate for ReadReq accesses
system.cpu.icache.ReadReq_avg_mshr_miss_latency::.switch_cpus.inst 69308.922559                       # average ReadReq mshr miss latency
system.cpu.icache.ReadReq_avg_mshr_miss_latency::total 69308.922559                       # average ReadReq mshr miss latency
system.cpu.icache.power_state.pwrStateResidencyTicks::UNDEFINED  37367698500                       # Cumulative time (in ticks) in various power states
system.cpu.icache.tags.tagsinuse           808.619173                       # Cycle average of tags in use
system.cpu.icache.tags.total_refs             4277473                       # Total number of references to valid blocks.
system.cpu.icache.tags.sampled_refs              1377                       # Sample count of references to valid blocks.
system.cpu.icache.tags.avg_refs           3106.371097                       # Average number of references to valid blocks.
system.cpu.icache.tags.warmup_cycle                 0                       # Cycle when the warmup percentage was hit.
system.cpu.icache.tags.occ_blocks::.cpu.inst   733.151784                       # Average occupied blocks per requestor
system.cpu.icache.tags.occ_blocks::.switch_cpus.inst    75.467390                       # Average occupied blocks per requestor
system.cpu.icache.tags.occ_percent::.cpu.inst     0.715969                       # Average percentage of cache occupancy
system.cpu.icache.tags.occ_percent::.switch_cpus.inst     0.073699                       # Average percentage of cache occupancy
system.cpu.icache.tags.occ_percent::total     0.789667                       # Average percentage of cache occupancy
system.cpu.icache.tags.occ_task_id_blocks::1024          944                       # Occupied blocks per task id
system.cpu.icache.tags.age_task_id_blocks_1024::2            7                       # Occupied blocks per task id
system.cpu.icache.tags.age_task_id_blocks_1024::3          465                       # Occupied blocks per task id
system.cpu.icache.tags.age_task_id_blocks_1024::4          472                       # Occupied blocks per task id
system.cpu.icache.tags.occ_task_id_percent::1024     0.921875                       # Percentage of cache occupancy per task id
system.cpu.icache.tags.tag_accesses           6053314                       # Number of tag accesses
system.cpu.icache.tags.data_accesses          6053314                       # Number of data accesses
system.cpu.icache.tags.power_state.pwrStateResidencyTicks::UNDEFINED  37367698500                       # Cumulative time (in ticks) in various power states
system.cpu.interrupts.clk_domain.clock           8000                       # Clock period in ticks
system.cpu.itb.rdAccesses                           0                       # TLB accesses on read requests
system.cpu.itb.wrAccesses                           0                       # TLB accesses on write requests
system.cpu.itb.rdMisses                             0                       # TLB misses on read requests
system.cpu.itb.wrMisses                             0                       # TLB misses on write requests
system.cpu.itb.walker.power_state.pwrStateResidencyTicks::UNDEFINED  37367698500                       # Cumulative time (in ticks) in various power states
system.cpu.itb_walker_cache.blocked_cycles::no_mshrs            0                       # number of cycles access was blocked
system.cpu.itb_walker_cache.blocked_cycles::no_targets            0                       # number of cycles access was blocked
system.cpu.itb_walker_cache.blocked::no_mshrs            0                       # number of cycles access was blocked
system.cpu.itb_walker_cache.blocked::no_targets            0                       # number of cycles access was blocked
system.cpu.itb_walker_cache.avg_blocked_cycles::no_mshrs          nan                       # average number of cycles each access was blocked
system.cpu.itb_walker_cache.avg_blocked_cycles::no_targets          nan                       # average number of cycles each access was blocked
system.cpu.itb_walker_cache.replacements            0                       # number of replacements
system.cpu.itb_walker_cache.power_state.pwrStateResidencyTicks::UNDEFINED  37367698500                       # Cumulative time (in ticks) in various power states
system.cpu.itb_walker_cache.tags.tagsinuse            0                       # Cycle average of tags in use
system.cpu.itb_walker_cache.tags.total_refs            0                       # Total number of references to valid blocks.
system.cpu.itb_walker_cache.tags.sampled_refs            0                       # Sample count of references to valid blocks.
system.cpu.itb_walker_cache.tags.avg_refs          nan                       # Average number of references to valid blocks.
system.cpu.itb_walker_cache.tags.warmup_cycle            0                       # Cycle when the warmup percentage was hit.
system.cpu.itb_walker_cache.tags.tag_accesses            0                       # Number of tag accesses
system.cpu.itb_walker_cache.tags.data_accesses            0                       # Number of data accesses
system.cpu.itb_walker_cache.tags.power_state.pwrStateResidencyTicks::UNDEFINED  37367698500                       # Cumulative time (in ticks) in various power states
system.cpu.power_state.pwrStateResidencyTicks::OFF  36334365500                       # Cumulative time (in ticks) in various power states
system.cpu.thread_0.numInsts                        0                       # Number of Instructions committed
system.cpu.thread_0.numOps                          0                       # Number of Ops committed
system.cpu.thread_0.numMemRefs                      0                       # Number of Memory References
system.cpu_clk_domain.clock                       500                       # Clock period in ticks
system.cpu_voltage_domain.voltage                   1                       # Voltage in Volts
system.l2.demand_hits::.switch_cpus.inst           92                       # number of demand (read+write) hits
system.l2.demand_hits::.switch_cpus.data         5066                       # number of demand (read+write) hits
system.l2.demand_hits::total                     5158                       # number of demand (read+write) hits
system.l2.overall_hits::.switch_cpus.inst           92                       # number of overall hits
system.l2.overall_hits::.switch_cpus.data         5066                       # number of overall hits
system.l2.overall_hits::total                    5158                       # number of overall hits
system.l2.demand_misses::.switch_cpus.inst          502                       # number of demand (read+write) misses
system.l2.demand_misses::.switch_cpus.data       361766                       # number of demand (read+write) misses
system.l2.demand_misses::total                 362268                       # number of demand (read+write) misses
system.l2.overall_misses::.switch_cpus.inst          502                       # number of overall misses
system.l2.overall_misses::.switch_cpus.data       361766                       # number of overall misses
system.l2.overall_misses::total                362268                       # number of overall misses
system.l2.demand_miss_latency::.switch_cpus.inst     39301500                       # number of demand (read+write) miss cycles
system.l2.demand_miss_latency::.switch_cpus.data  28315523500                       # number of demand (read+write) miss cycles
system.l2.demand_miss_latency::total      28354825000                       # number of demand (read+write) miss cycles
system.l2.overall_miss_latency::.switch_cpus.inst     39301500                       # number of overall miss cycles
system.l2.overall_miss_latency::.switch_cpus.data  28315523500                       # number of overall miss cycles
system.l2.overall_miss_latency::total     28354825000                       # number of overall miss cycles
system.l2.demand_accesses::.switch_cpus.inst          594                       # number of demand (read+write) accesses
system.l2.demand_accesses::.switch_cpus.data       366832                       # number of demand (read+write) accesses
system.l2.demand_accesses::total               367426                       # number of demand (read+write) accesses
system.l2.overall_accesses::.switch_cpus.inst          594                       # number of overall (read+write) accesses
system.l2.overall_accesses::.switch_cpus.data       366832                       # number of overall (read+write) accesses
system.l2.overall_accesses::total              367426                       # number of overall (read+write) accesses
system.l2.demand_miss_rate::.switch_cpus.inst     0.845118                       # miss rate for demand accesses
system.l2.demand_miss_rate::.switch_cpus.data     0.986190                       # miss rate for demand accesses
system.l2.demand_miss_rate::total            0.985962                       # miss rate for demand accesses
system.l2.overall_miss_rate::.switch_cpus.inst     0.845118                       # miss rate for overall accesses
system.l2.overall_miss_rate::.switch_cpus.data     0.986190                       # miss rate for overall accesses
system.l2.overall_miss_rate::total           0.985962                       # miss rate for overall accesses
system.l2.demand_avg_miss_latency::.switch_cpus.inst 78289.840637                       # average overall miss latency
system.l2.demand_avg_miss_latency::.switch_cpus.data 78270.272773                       # average overall miss latency
system.l2.demand_avg_miss_latency::total 78270.299888                       # average overall miss latency
system.l2.overall_avg_miss_latency::.switch_cpus.inst 78289.840637                       # average overall miss latency
system.l2.overall_avg_miss_latency::.switch_cpus.data 78270.272773                       # average overall miss latency
system.l2.overall_avg_miss_latency::total 78270.299888                       # average overall miss latency
system.l2.blocked_cycles::no_mshrs                  0                       # number of cycles access was blocked
system.l2.blocked_cycles::no_targets                0                       # number of cycles access was blocked
system.l2.blocked::no_mshrs                         0                       # number of cycles access was blocked
system.l2.blocked::no_targets                       0                       # number of cycles access was blocked
system.l2.avg_blocked_cycles::no_mshrs            nan                       # average number of cycles each access was blocked
system.l2.avg_blocked_cycles::no_targets          nan                       # average number of cycles each access was blocked
system.l2.writebacks::.writebacks              357511                       # number of writebacks
system.l2.writebacks::total                    357511                       # number of writebacks
system.l2.demand_mshr_misses::.switch_cpus.inst          502                       # number of demand (read+write) MSHR misses
system.l2.demand_mshr_misses::.switch_cpus.data       361766                       # number of demand (read+write) MSHR misses
system.l2.demand_mshr_misses::total            362268                       # number of demand (read+write) MSHR misses
system.l2.overall_mshr_misses::.switch_cpus.inst          502                       # number of overall MSHR misses
system.l2.overall_mshr_misses::.switch_cpus.data       361766                       # number of overall MSHR misses
system.l2.overall_mshr_misses::total           362268                       # number of overall MSHR misses
system.l2.demand_mshr_miss_latency::.switch_cpus.inst     34281500                       # number of demand (read+write) MSHR miss cycles
system.l2.demand_mshr_miss_latency::.switch_cpus.data  24697863500                       # number of demand (read+write) MSHR miss cycles
system.l2.demand_mshr_miss_latency::total  24732145000                       # number of demand (read+write) MSHR miss cycles
system.l2.overall_mshr_miss_latency::.switch_cpus.inst     34281500                       # number of overall MSHR miss cycles
system.l2.overall_mshr_miss_latency::.switch_cpus.data  24697863500                       # number of overall MSHR miss cycles
system.l2.overall_mshr_miss_latency::total  24732145000                       # number of overall MSHR miss cycles
system.l2.demand_mshr_miss_rate::.switch_cpus.inst     0.845118                       # mshr miss rate for demand accesses
system.l2.demand_mshr_miss_rate::.switch_cpus.data     0.986190                       # mshr miss rate for demand accesses
system.l2.demand_mshr_miss_rate::total       0.985962                       # mshr miss rate for demand accesses
system.l2.overall_mshr_miss_rate::.switch_cpus.inst     0.845118                       # mshr miss rate for overall accesses
system.l2.overall_mshr_miss_rate::.switch_cpus.data     0.986190                       # mshr miss rate for overall accesses
system.l2.overall_mshr_miss_rate::total      0.985962                       # mshr miss rate for overall accesses
system.l2.demand_avg_mshr_miss_latency::.switch_cpus.inst 68289.840637                       # average overall mshr miss latency
system.l2.demand_avg_mshr_miss_latency::.switch_cpus.data 68270.272773                       # average overall mshr miss latency
system.l2.demand_avg_mshr_miss_latency::total 68270.299888                       # average overall mshr miss latency
system.l2.overall_avg_mshr_miss_latency::.switch_cpus.inst 68289.840637                       # average overall mshr miss latency
system.l2.overall_avg_mshr_miss_latency::.switch_cpus.data 68270.272773                       # average overall mshr miss latency
system.l2.overall_avg_mshr_miss_latency::total 68270.299888                       # average overall mshr miss latency
system.l2.replacements                         358308                       # number of replacements
system.l2.WritebackDirty_hits::.writebacks       364369                       # number of WritebackDirty hits
system.l2.WritebackDirty_hits::total           364369                       # number of WritebackDirty hits
system.l2.WritebackDirty_accesses::.writebacks       364369                       # number of WritebackDirty accesses(hits+misses)
system.l2.WritebackDirty_accesses::total       364369                       # number of WritebackDirty accesses(hits+misses)
system.l2.WritebackClean_hits::.writebacks          432                       # number of WritebackClean hits
system.l2.WritebackClean_hits::total              432                       # number of WritebackClean hits
system.l2.WritebackClean_accesses::.writebacks          432                       # number of WritebackClean accesses(hits+misses)
system.l2.WritebackClean_accesses::total          432                       # number of WritebackClean accesses(hits+misses)
system.l2.ReadExReq_hits::.switch_cpus.data          770                       # number of ReadExReq hits
system.l2.ReadExReq_hits::total                   770                       # number of ReadExReq hits
system.l2.ReadExReq_misses::.switch_cpus.data       361063                       # number of ReadExReq misses
system.l2.ReadExReq_misses::total              361063                       # number of ReadExReq misses
system.l2.ReadExReq_miss_latency::.switch_cpus.data  28260301500                       # number of ReadExReq miss cycles
system.l2.ReadExReq_miss_latency::total   28260301500                       # number of ReadExReq miss cycles
system.l2.ReadExReq_accesses::.switch_cpus.data       361833                       # number of ReadExReq accesses(hits+misses)
system.l2.ReadExReq_accesses::total            361833                       # number of ReadExReq accesses(hits+misses)
system.l2.ReadExReq_miss_rate::.switch_cpus.data     0.997872                       # miss rate for ReadExReq accesses
system.l2.ReadExReq_miss_rate::total         0.997872                       # miss rate for ReadExReq accesses
[...]
system.switch_cpus.commit.committedInstType_0::FloatSqrt            0      0.00%     83.38% # Class of committed instruction
system.switch_cpus.commit.committedInstType_0::SimdAdd            0      0.00%     83.38% # Class of committed instruction
system.switch_cpus.commit.committedInstType_0::SimdAddAcc            0      0.00%     83.38% # Class of committed instruction
system.switch_cpus.commit.committedInstType_0::SimdAlu           38      0.00%     83.38% # Class of committed instruction
system.switch_cpus.commit.committedInstType_0::SimdCmp            0      0.00%     83.38% # Class of committed instruction
system.switch_cpus.commit.committedInstType_0::SimdCvt           16      0.00%     83.38% # Class of committed instruction
system.switch_cpus.commit.committedInstType_0::SimdMisc          195      0.00%     83.39% # Class of committed instruction
system.switch_cpus.commit.committedInstType_0::SimdMult            0      0.00%     83.39% # Class of committed instruction
system.switch_cpus.commit.committedInstType_0::SimdMultAcc            0      0.00%     83.39% # Class of committed instruction
system.switch_cpus.commit.committedInstType_0::SimdShift            0      0.00%     83.39% # Class of committed instruction
system.switch_cpus.commit.committedInstType_0::SimdShiftAcc            0      0.00%     83.39% # Class of committed instruction
system.switch_cpus.commit.committedInstType_0::SimdDiv            0      0.00%     83.39% # Class of committed instruction
system.switch_cpus.commit.committedInstType_0::SimdSqrt            0      0.00%     83.39% # Class of committed instruction
system.switch_cpus.commit.committedInstType_0::SimdFloatAdd            0      0.00%     83.39% # Class of committed instruction
system.switch_cpus.commit.committedInstType_0::SimdFloatAlu            0      0.00%     83.39% # Class of committed instruction
system.switch_cpus.commit.committedInstType_0::SimdFloatCmp            0      0.00%     83.39% # Class of committed instruction
system.switch_cpus.commit.committedInstType_0::SimdFloatCvt            0      0.00%     83.39% # Class of committed instruction
system.switch_cpus.commit.committedInstType_0::SimdFloatDiv            0      0.00%     83.39% # Class of committed instruction
system.switch_cpus.commit.committedInstType_0::SimdFloatMisc            0      0.00%     83.39% # Class of committed instruction
system.switch_cpus.commit.committedInstType_0::SimdFloatMult            0      0.00%     83.39% # Class of committed instruction
system.switch_cpus.commit.committedInstType_0::SimdFloatMultAcc            0      0.00%     83.39% # Class of committed instruction
system.switch_cpus.commit.committedInstType_0::SimdFloatSqrt            0      0.00%     83.39% # Class of committed instruction
system.switch_cpus.commit.committedInstType_0::SimdReduceAdd            0      0.00%     83.39% # Class of committed instruction
system.switch_cpus.commit.committedInstType_0::SimdReduceAlu            0      0.00%     83.39% # Class of committed instruction
system.switch_cpus.commit.committedInstType_0::SimdReduceCmp            0      0.00%     83.39% # Class of committed instruction
system.switch_cpus.commit.committedInstType_0::SimdFloatReduceAdd            0      0.00%     83.39% # Class of committed instruction
system.switch_cpus.commit.committedInstType_0::SimdFloatReduceCmp            0      0.00%     83.39% # Class of committed instruction
system.switch_cpus.commit.committedInstType_0::SimdAes            0      0.00%     83.39% # Class of committed instruction
system.switch_cpus.commit.committedInstType_0::SimdAesMix            0      0.00%     83.39% # Class of committed instruction
system.switch_cpus.commit.committedInstType_0::SimdSha1Hash            0      0.00%     83.39% # Class of committed instruction
system.switch_cpus.commit.committedInstType_0::SimdSha1Hash2            0      0.00%     83.39% # Class of committed instruction
system.switch_cpus.commit.committedInstType_0::SimdSha256Hash            0      0.00%     83.39% # Class of committed instruction
system.switch_cpus.commit.committedInstType_0::SimdSha256Hash2            0      0.00%     83.39% # Class of committed instruction
system.switch_cpus.commit.committedInstType_0::SimdShaSigma2            0      0.00%     83.39% # Class of committed instruction
system.switch_cpus.commit.committedInstType_0::SimdShaSigma3            0      0.00%     83.39% # Class of committed instruction
system.switch_cpus.commit.committedInstType_0::SimdPredAlu            0      0.00%     83.39% # Class of committed instruction
system.switch_cpus.commit.committedInstType_0::MemRead      1552130      9.94%     93.32% # Class of committed instruction
system.switch_cpus.commit.committedInstType_0::MemWrite       959936      6.14%     99.47% # Class of committed instruction
system.switch_cpus.commit.committedInstType_0::FloatMemRead        41594      0.27%     99.73% # Class of committed instruction
system.switch_cpus.commit.committedInstType_0::FloatMemWrite        41766      0.27%    100.00% # Class of committed instruction
system.switch_cpus.commit.committedInstType_0::IprAccess            0      0.00%    100.00% # Class of committed instruction
system.switch_cpus.commit.committedInstType_0::InstPrefetch            0      0.00%    100.00% # Class of committed instruction
system.switch_cpus.commit.committedInstType_0::total     15621649                       # Class of committed instruction
system.switch_cpus.commit.commitEligibleSamples       809524                       # number cycles where commit BW limit reached
system.switch_cpus.decode.idleCycles          2665631                       # Number of cycles decode is idle
system.switch_cpus.decode.blockedCycles      60890985                       # Number of cycles decode is blocked
system.switch_cpus.decode.runCycles           7859703                       # Number of cycles decode is running
system.switch_cpus.decode.unblockCycles        801962                       # Number of cycles decode is unblocking
system.switch_cpus.decode.squashCycles         413140                       # Number of cycles decode is squashing
system.switch_cpus.decode.branchResolved      3914797                       # Number of times decode resolved a  branch
system.switch_cpus.decode.branchMispred           466                       # Number of times decode detected a branch misprediction
system.switch_cpus.decode.decodedInsts       51695815                       # Number of instructions handled by decode
system.switch_cpus.decode.squashedInsts          1946                       # Number of squashed instructions handled by decode
system.switch_cpus.dtb.rdAccesses             4743895                       # TLB accesses on read requests
system.switch_cpus.dtb.wrAccesses             3756885                       # TLB accesses on write requests
system.switch_cpus.dtb.rdMisses                   801                       # TLB misses on read requests
system.switch_cpus.dtb.wrMisses               2052626                       # TLB misses on write requests
system.switch_cpus.dtb.walker.power_state.pwrStateResidencyTicks::UNDEFINED  37367698500                       # Cumulative time (in ticks) in various power states
system.switch_cpus.fetch.icacheStallCycles      3260243                       # Number of cycles fetch is stalled on an Icache miss
system.switch_cpus.fetch.insts               34968720                       # Number of instructions fetch has processed
system.switch_cpus.fetch.branches             5310751                       # Number of branches that fetch encountered
system.switch_cpus.fetch.predictedBranches      4405209                       # Number of branches that fetch has predicted taken
system.switch_cpus.fetch.cycles              68956676                       # Number of cycles fetch has run and was not squashing or blocked
system.switch_cpus.fetch.squashCycles          827170                       # Number of cycles fetch has spent squashing
system.switch_cpus.fetch.miscStallCycles          104                       # Number of cycles fetch has spent waiting on interrupts,or bad addresses, or out of MSHRs
system.switch_cpus.fetch.pendingTrapStallCycles          775                       # Number of stall cycles due to pending traps
system.switch_cpus.fetch.icacheWaitRetryStallCycles           43                       # Number of stall cycles due to full MSHR
system.switch_cpus.fetch.cacheLines           3026360                       # Number of cache lines fetched
system.switch_cpus.fetch.icacheSquashes         95004                       # Number of outstanding Icache misses that were squashed
system.switch_cpus.fetch.nisnDist::samples     72631426                       # Number of instructions fetched each cycle (Total)
system.switch_cpus.fetch.nisnDist::mean      0.790271                       # Number of instructions fetched each cycle (Total)
system.switch_cpus.fetch.nisnDist::stdev     2.217314                       # Number of instructions fetched each cycle (Total)
system.switch_cpus.fetch.nisnDist::underflows            0      0.00%      0.00% # Number of instructions fetched each cycle (Total)
system.switch_cpus.fetch.nisnDist::0         61719314     84.98%     84.98% # Number of instructions fetched each cycle (Total)
system.switch_cpus.fetch.nisnDist::1          2817975      3.88%     88.86% # Number of instructions fetched each cycle (Total)
system.switch_cpus.fetch.nisnDist::2           351443      0.48%     89.34% # Number of instructions fetched each cycle (Total)
system.switch_cpus.fetch.nisnDist::3           675101      0.93%     90.27% # Number of instructions fetched each cycle (Total)
system.switch_cpus.fetch.nisnDist::4           493764      0.68%     90.95% # Number of instructions fetched each cycle (Total)
system.switch_cpus.fetch.nisnDist::5           615410      0.85%     91.80% # Number of instructions fetched each cycle (Total)
system.switch_cpus.fetch.nisnDist::6           267097      0.37%     92.16% # Number of instructions fetched each cycle (Total)
system.switch_cpus.fetch.nisnDist::7           332925      0.46%     92.62% # Number of instructions fetched each cycle (Total)
system.switch_cpus.fetch.nisnDist::8          5358397      7.38%    100.00% # Number of instructions fetched each cycle (Total)
system.switch_cpus.fetch.nisnDist::overflows            0      0.00%    100.00% # Number of instructions fetched each cycle (Total)
system.switch_cpus.fetch.nisnDist::min_value            0                       # Number of instructions fetched each cycle (Total)
system.switch_cpus.fetch.nisnDist::max_value            8                       # Number of instructions fetched each cycle (Total)
system.switch_cpus.fetch.nisnDist::total     72631426                       # Number of instructions fetched each cycle (Total)
system.switch_cpus.fetch.branchRate          0.073082                       # Number of branch fetches per cycle
system.switch_cpus.fetch.rate                0.481207                       # Number of inst fetches per cycle
system.switch_cpus.itb.rdAccesses                   0                       # TLB accesses on read requests
system.switch_cpus.itb.wrAccesses             3026481                       # TLB accesses on write requests
system.switch_cpus.itb.rdMisses                     0                       # TLB misses on read requests
system.switch_cpus.itb.wrMisses                   161                       # TLB misses on write requests
system.switch_cpus.itb.walker.power_state.pwrStateResidencyTicks::UNDEFINED  37367698500                       # Cumulative time (in ticks) in various power states
system.switch_cpus.lsq0.forwLoads              247593                       # Number of loads that had data forwarded from stores
system.switch_cpus.lsq0.squashedLoads         3642088                       # Number of loads squashed
system.switch_cpus.lsq0.ignoredResponses         4557                       # Number of memory responses ignored because the instruction is squashed
system.switch_cpus.lsq0.memOrderViolation         1685                       # Number of memory ordering violations
system.switch_cpus.lsq0.squashedStores        3375239                       # Number of stores squashed
system.switch_cpus.lsq0.rescheduledLoads            1                       # Number of loads that were rescheduled
system.switch_cpus.lsq0.blockedByCache             33                       # Number of times an access to memory failed due to the cache being blocked
system.switch_cpus.power_state.pwrStateResidencyTicks::OFF  37367698500                       # Cumulative time (in ticks) in various power states
system.switch_cpus.rename.squashCycles         413140                       # Number of cycles rename is squashing
system.switch_cpus.rename.idleCycles          3127395                       # Number of cycles rename is idle
system.switch_cpus.rename.blockCycles        59722417                       # Number of cycles rename is blocking
system.switch_cpus.rename.serializeStallCycles            0                       # count of cycles rename stalledfor serializing inst
system.switch_cpus.rename.runCycles           8186132                       # Number of cycles rename is running
system.switch_cpus.rename.unblockCycles       1182337                       # Number of cycles rename is unblocking
system.switch_cpus.rename.renamedInsts       49961747                       # Number of instructions processed by rename
system.switch_cpus.rename.ROBFullEvents        269805                       # Number of times rename has blocked due to ROB full
system.switch_cpus.rename.IQFullEvents         386672                       # Number of times rename has blocked due to IQ full
system.switch_cpus.rename.LQFullEvents            659                       # Number of times rename has blocked due to LQ full
system.switch_cpus.rename.SQFullEvents         504385                       # Number of times rename has blocked due to SQ full
system.switch_cpus.rename.renamedOperands     66023280                       # Number of destination operands rename has renamed
system.switch_cpus.rename.lookups           120822996                       # Number of register rename lookups that rename has made
system.switch_cpus.rename.intLookups         76842120                       # Number of integer rename lookups
system.switch_cpus.rename.fpLookups            734678                       # Number of floating rename lookups
system.switch_cpus.rename.committedMaps      21895928                       # Number of HB maps that are committed
system.switch_cpus.rename.undoneMaps         44127195                       # Number of HB maps that are undone due to squashing
system.switch_cpus.rename.serializing               0                       # count of serializing insts renamed
system.switch_cpus.rename.tempSerializing            0                       # count of temporary serializing insts renamed
system.switch_cpus.rename.skidInsts           1889127                       # count of insts added to the skid buffer
system.switch_cpus.rob.reads                113396067                       # The number of ROB reads
system.switch_cpus.rob.writes                98315508                       # The number of ROB writes
system.switch_cpus.thread_0.numInsts         10000005                       # Number of Instructions committed
system.switch_cpus.thread_0.numOps           15621649                       # Number of Ops committed
system.switch_cpus.thread_0.numMemRefs              0                       # Number of Memory References
system.tol2bus.trans_dist::ReadResp              5593                       # Transaction distribution
system.tol2bus.trans_dist::WritebackDirty       721880                       # Transaction distribution
system.tol2bus.trans_dist::WritebackClean          433                       # Transaction distribution
system.tol2bus.trans_dist::CleanEvict            3259                       # Transaction distribution
system.tol2bus.trans_dist::ReadExReq           361833                       # Transaction distribution
system.tol2bus.trans_dist::ReadExResp          361833                       # Transaction distribution
system.tol2bus.trans_dist::ReadCleanReq           594                       # Transaction distribution
system.tol2bus.trans_dist::ReadSharedReq         4999                       # Transaction distribution
system.tol2bus.pkt_count_system.cpu.icache.mem_side_port::system.l2.cpu_side_port         1621                       # Packet count per connected requestor and responder (bytes)
system.tol2bus.pkt_count_system.cpu.dcache.mem_side_port::system.l2.cpu_side_port      1100495                       # Packet count per connected requestor and responder (bytes)
system.tol2bus.pkt_count::total               1102116                       # Packet count per connected requestor and responder (bytes)
system.tol2bus.pkt_size_system.cpu.icache.mem_side_port::system.l2.cpu_side_port        65728                       # Cumulative packet size per connected requestor and responder (bytes)
system.tol2bus.pkt_size_system.cpu.dcache.mem_side_port::system.l2.cpu_side_port     46796864                       # Cumulative packet size per connected requestor and responder (bytes)
system.tol2bus.pkt_size::total               46862592                       # Cumulative packet size per connected requestor and responder (bytes)
system.tol2bus.snoops                          358308                       # Total snoops (count)
system.tol2bus.snoopTraffic                  22880704                       # Total snoop traffic (bytes)
system.tol2bus.snoop_fanout::samples           725734                       # Request fanout histogram
system.tol2bus.snoop_fanout::mean            0.000243                       # Request fanout histogram
system.tol2bus.snoop_fanout::stdev           0.015571                       # Request fanout histogram
system.tol2bus.snoop_fanout::underflows             0      0.00%      0.00% # Request fanout histogram
system.tol2bus.snoop_fanout::0                 725558     99.98%     99.98% # Request fanout histogram
system.tol2bus.snoop_fanout::1                    176      0.02%    100.00% # Request fanout histogram
system.tol2bus.snoop_fanout::2                      0      0.00%    100.00% # Request fanout histogram
system.tol2bus.snoop_fanout::3                      0      0.00%    100.00% # Request fanout histogram
system.tol2bus.snoop_fanout::4                      0      0.00%    100.00% # Request fanout histogram
system.tol2bus.snoop_fanout::overflows              0      0.00%    100.00% # Request fanout histogram
system.tol2bus.snoop_fanout::min_value              0                       # Request fanout histogram
system.tol2bus.snoop_fanout::max_value              1                       # Request fanout histogram
system.tol2bus.snoop_fanout::total             725734                       # Request fanout histogram
system.tol2bus.power_state.pwrStateResidencyTicks::UNDEFINED  37367698500                       # Cumulative time (in ticks) in various power states
system.tol2bus.reqLayer0.occupancy          732147000                       # Layer occupancy (ticks)
system.tol2bus.reqLayer0.utilization              2.0                       # Layer utilization (%)
system.tol2bus.respLayer0.occupancy            891000                       # Layer occupancy (ticks)
system.tol2bus.respLayer0.utilization             0.0                       # Layer utilization (%)
system.tol2bus.respLayer1.occupancy         550248000                       # Layer occupancy (ticks)
system.tol2bus.respLayer1.utilization             1.5                       # Layer utilization (%)
system.voltage_domain.voltage                       1                       # Voltage in Volts

---------- End Simulation Statistics   ----------
