
---------- Begin Simulation Statistics ----------
final_tick                                 5595938000                       # Number of ticks from beginning of simulation (restored from checkpoints and never reset)
host_inst_rate                                 112422                       # Simulator instruction rate (inst/s)
host_mem_usage                                8740480                       # Number of bytes of host memory used
host_op_rate                                   212810                       # Simulator op (including micro ops) rate (op/s)
host_seconds                                    58.96                       # Real time elapsed on the host
host_tick_rate                               77094711                       # Simulator tick rate (ticks/s)
sim_freq                                 1000000000000                       # Frequency of simulated ticks
sim_insts                                     6628200                       # Number of instructions simulated
sim_ops                                      12546979                       # Number of ops (including micro ops) simulated
sim_seconds                                  0.004545                       # Number of seconds simulated
sim_ticks                                  4545390500                       # Number of ticks simulated
system.cpu.committedInsts                           0                       # Number of instructions committed
system.cpu.committedOps                             0                       # Number of ops (including micro ops) committed
system.cpu.idle_fraction                            0                       # Percentage of idle cycles
system.cpu.not_idle_fraction                        1                       # Percentage of non-idle cycles
system.cpu.numCycles                                0                       # number of cpu cycles simulated
system.cpu.numWorkItemsCompleted                    0                       # number of work items this cpu completed
system.cpu.numWorkItemsStarted                      0                       # number of work items this cpu started
system.cpu.num_busy_cycles                          0                       # Number of busy cycles
system.cpu.num_conditional_control_insts            0                       # number of instructions that are conditional controls
system.cpu.num_fp_alu_accesses                      0                       # Number of float alu accesses
system.cpu.num_fp_insts                             0                       # number of float instructions
system.cpu.num_fp_register_reads                    0                       # number of times the floating registers were read
system.cpu.num_fp_register_writes                   0                       # number of times the floating registers were written
system.cpu.num_func_calls                           0                       # number of times a function call or return occured
system.cpu.num_idle_cycles                          0                       # Number of idle cycles
system.cpu.num_int_alu_accesses                     0                       # Number of integer alu accesses
system.cpu.num_int_insts                            0                       # number of integer instructions
system.cpu.num_int_register_reads                   0                       # number of times the integer registers were read
system.cpu.num_int_register_writes                  0                       # number of times the integer registers were written
system.cpu.num_load_insts                           0                       # Number of load instructions
system.cpu.num_mem_refs                             0                       # number of memory refs
system.cpu.num_store_insts                          0                       # Number of store instructions
system.cpu.num_vec_alu_accesses                     0                       # Number of vector alu accesses
system.cpu.num_vec_insts                            0                       # number of vector instructions
system.cpu.num_vec_register_reads                   0                       # number of times the vector registers were read
system.cpu.num_vec_register_writes                  0                       # number of times the vector registers were written
system.cpu.op_class::No_OpClass                     0                       # Class of executed instruction
system.cpu.op_class::IntAlu                         0                       # Class of executed instruction
system.cpu.op_class::IntMult                        0                       # Class of executed instruction
system.cpu.op_class::IntDiv                         0                       # Class of executed instruction
system.cpu.op_class::FloatAdd                       0                       # Class of executed instruction
system.cpu.op_class::FloatCmp                       0                       # Class of executed instruction
system.cpu.op_class::FloatCvt                       0                       # Class of executed instruction
system.cpu.op_class::FloatMult                      0                       # Class of executed instruction
system.cpu.op_class::FloatMultAcc                   0                       # Class of executed instruction
system.cpu.op_class::FloatDiv                       0                       # Class of executed instruction
system.cpu.op_class::FloatMisc                      0                       # Class of executed instruction
system.cpu.op_class::FloatSqrt                      0                       # Class of executed instruction
system.cpu.op_class::SimdAdd                        0                       # Class of executed instruction
system.cpu.op_class::SimdAddAcc                     0                       # Class of executed instruction
system.cpu.op_class::SimdAlu                        0                       # Class of executed instruction
system.cpu.op_class::SimdCmp                        0                       # Class of executed instruction
system.cpu.op_class::SimdCvt                        0                       # Class of executed instruction
system.cpu.op_class::SimdMisc                       0                       # Class of executed instruction
system.cpu.op_class::SimdMult                       0                       # Class of executed instruction
system.cpu.op_class::SimdMultAcc                    0                       # Class of executed instruction
system.cpu.op_class::SimdShift                      0                       # Class of executed instruction
system.cpu.op_class::SimdShiftAcc                   0                       # Class of executed instruction
system.cpu.op_class::SimdDiv                        0                       # Class of executed instruction
system.cpu.op_class::SimdSqrt                       0                       # Class of executed instruction
system.cpu.op_class::SimdFloatAdd                   0                       # Class of executed instruction
system.cpu.op_class::SimdFloatAlu                   0                       # Class of executed instruction
system.cpu.op_class::SimdFloatCmp                   0                       # Class of executed instruction
system.cpu.op_class::SimdFloatCvt                   0                       # Class of executed instruction
system.cpu.op_class::SimdFloatDiv                   0                       # Class of executed instruction
system.cpu.op_class::SimdFloatMisc                  0                       # Class of executed instruction
system.cpu.op_class::SimdFloatMult                  0                       # Class of executed instruction
system.cpu.op_class::SimdFloatMultAcc               0                       # Class of executed instruction
system.cpu.op_class::SimdFloatSqrt                  0                       # Class of executed instruction
system.cpu.op_class::SimdReduceAdd                  0                       # Class of executed instruction
system.cpu.op_class::SimdReduceAlu                  0                       # Class of executed instruction
system.cpu.op_class::SimdReduceCmp                  0                       # Class of executed instruction
system.cpu.op_class::SimdFloatReduceAdd             0                       # Class of executed instruction
system.cpu.op_class::SimdFloatReduceCmp             0                       # Class of executed instruction
system.cpu.op_class::SimdAes                        0                       # Class of executed instruction
system.cpu.op_class::SimdAesMix                     0                       # Class of executed instruction
system.cpu.op_class::SimdSha1Hash                   0                       # Class of executed instruction
system.cpu.op_class::SimdSha1Hash2                  0                       # Class of executed instruction
system.cpu.op_class::SimdSha256Hash                 0                       # Class of executed instruction
system.cpu.op_class::SimdSha256Hash2                0                       # Class of executed instruction
system.cpu.op_class::SimdShaSigma2                  0                       # Class of executed instruction
system.cpu.op_class::SimdShaSigma3                  0                       # Class of executed instruction
system.cpu.op_class::SimdPredAlu                    0                       # Class of executed instruction
system.cpu.op_class::MemRead                        0                       # Class of executed instruction
system.cpu.op_class::MemWrite                       0                       # Class of executed instruction
system.cpu.op_class::FloatMemRead                   0                       # Class of executed instruction
system.cpu.op_class::FloatMemWrite                  0                       # Class of executed instruction
system.cpu.op_class::IprAccess                      0                       # Class of executed instruction
system.cpu.op_class::InstPrefetch                   0                       # Class of executed instruction
system.cpu.op_class::total                          0                       # Class of executed instruction
system.cpu.workload.numSyscalls                    44                       # Number of system calls
system.membus.snoop_filter.hit_multi_requests            0                       # Number of requests hitting in the snoop filter with multiple (>1) holders of the requested data.
system.membus.snoop_filter.hit_multi_snoops            0                       # Number of snoops hitting in the snoop filter with multiple (>1) holders of the requested data.
system.membus.snoop_filter.hit_single_requests        26960                       # Number of requests hitting in the snoop filter with a single holder of the requested data.
system.membus.snoop_filter.hit_single_snoops            0                       # Number of snoops hitting in the snoop filter with a single holder of the requested data.
system.membus.snoop_filter.tot_requests         55779                       # Total number of requests made to the snoop filter.
system.membus.snoop_filter.tot_snoops               0                       # Total number of snoops made to the snoop filter.
system.switch_cpus.cc_regfile_reads           8060269                       # number of cc regfile reads
system.switch_cpus.cc_regfile_writes          4955439                       # number of cc regfile writes
system.switch_cpus.committedInsts             5628199                       # Number of Instructions Simulated
system.switch_cpus.committedOps              10786153                       # Number of Ops (including micro ops) Simulated
system.switch_cpus.cpi                       1.615220                       # CPI: Cycles Per Instruction
system.switch_cpus.cpi_total                 1.615220                       # CPI: Total CPI of All Threads
system.switch_cpus.fp_regfile_reads            841718                       # number of floating regfile reads
system.switch_cpus.fp_regfile_writes           479341                       # number of floating regfile writes
system.switch_cpus.idleCycles                  576687                       # Total number of cycles that the CPU has spent unscheduled due to idling
system.switch_cpus.iew.branchMispredicts       336559                       # Number of branch mispredicts detected at execute
system.switch_cpus.iew.exec_branches          1564740                       # Number of branches executed
system.switch_cpus.iew.exec_nop                     0                       # number of nop insts executed
system.switch_cpus.iew.exec_rate             1.800888                       # Inst execution rate
system.switch_cpus.iew.exec_refs              3128262                       # number of memory reference insts executed
system.switch_cpus.iew.exec_stores             982413                       # Number of stores executed
system.switch_cpus.iew.exec_swp                     0                       # number of swp insts executed
system.switch_cpus.iew.iewBlockCycles         1567852                       # Number of cycles IEW is blocking
system.switch_cpus.iew.iewDispLoadInsts       2545527                       # Number of dispatched load instructions
system.switch_cpus.iew.iewDispNonSpecInsts         3557                       # Number of dispatched non-speculative instructions
system.switch_cpus.iew.iewDispSquashedInsts        43498                       # Number of squashed instructions skipped by dispatch
system.switch_cpus.iew.iewDispStoreInsts      1210045                       # Number of dispatched store instructions
system.switch_cpus.iew.iewDispatchedInsts     19485490                       # Number of instructions dispatched to IQ
system.switch_cpus.iew.iewExecLoadInsts       2145849                       # Number of load instructions executed
system.switch_cpus.iew.iewExecSquashedInsts       607434                       # Number of squashed instructions skipped in execute
system.switch_cpus.iew.iewExecutedInsts      16371482                       # Number of executed instructions
system.switch_cpus.iew.iewIQFullEvents           9732                       # Number of times the IQ has become full, causing a stall
system.switch_cpus.iew.iewIdleCycles                0                       # Number of cycles IEW is idle
system.switch_cpus.iew.iewLSQFullEvents        137217                       # Number of times the LSQ has become full, causing a stall
system.switch_cpus.iew.iewSquashCycles         270370                       # Number of cycles IEW is squashing
system.switch_cpus.iew.iewUnblockCycles        150151                       # Number of cycles IEW is unblocking
system.switch_cpus.iew.memOrderViolationEvents          788                       # Number of memory order violations
system.switch_cpus.iew.predictedNotTakenIncorrect       225295                       # Number of branches that were predicted not taken incorrectly
system.switch_cpus.iew.predictedTakenIncorrect       111264                       # Number of branches that were predicted taken incorrectly
system.switch_cpus.iew.wb_consumers          19065574                       # num instructions consuming a value
system.switch_cpus.iew.wb_count              16027320                       # cumulative count of insts written-back
system.switch_cpus.iew.wb_fanout             0.603111                       # average fanout of values written-back
system.switch_cpus.iew.wb_producers          11498649                       # num instructions producing a value
system.switch_cpus.iew.wb_rate               1.763030                       # insts written-back per cycle
system.switch_cpus.iew.wb_sent               16166842                       # cumulative count of insts sent to commit
system.switch_cpus.int_regfile_reads         22604146                       # number of integer regfile reads
system.switch_cpus.int_regfile_writes        12664581                       # number of integer regfile writes
system.switch_cpus.ipc                       0.619111                       # IPC: Instructions Per Cycle
system.switch_cpus.ipc_total                 0.619111                       # IPC: Total IPC of All Threads
system.switch_cpus.iq.FU_type_0::No_OpClass       635513      3.74%      3.74% # Type of FU issued
system.switch_cpus.iq.FU_type_0::IntAlu      12603238     74.23%     77.97% # Type of FU issued
system.switch_cpus.iq.FU_type_0::IntMult        11995      0.07%     78.04% # Type of FU issued
system.switch_cpus.iq.FU_type_0::IntDiv         29674      0.17%     78.22% # Type of FU issued
system.switch_cpus.iq.FU_type_0::FloatAdd        24017      0.14%     78.36% # Type of FU issued
system.switch_cpus.iq.FU_type_0::FloatCmp            0      0.00%     78.36% # Type of FU issued
system.switch_cpus.iq.FU_type_0::FloatCvt         1852      0.01%     78.37% # Type of FU issued
system.switch_cpus.iq.FU_type_0::FloatMult            0      0.00%     78.37% # Type of FU issued
system.switch_cpus.iq.FU_type_0::FloatMultAcc            0      0.00%     78.37% # Type of FU issued
system.switch_cpus.iq.FU_type_0::FloatDiv            0      0.00%     78.37% # Type of FU issued
system.switch_cpus.iq.FU_type_0::FloatMisc            0      0.00%     78.37% # Type of FU issued
system.switch_cpus.iq.FU_type_0::FloatSqrt            0      0.00%     78.37% # Type of FU issued
system.switch_cpus.iq.FU_type_0::SimdAdd        11771      0.07%     78.44% # Type of FU issued
system.switch_cpus.iq.FU_type_0::SimdAddAcc            0      0.00%     78.44% # Type of FU issued
system.switch_cpus.iq.FU_type_0::SimdAlu       107125      0.63%     79.07% # Type of FU issued
system.switch_cpus.iq.FU_type_0::SimdCmp         4983      0.03%     79.10% # Type of FU issued
system.switch_cpus.iq.FU_type_0::SimdCvt        93757      0.55%     79.65% # Type of FU issued
system.switch_cpus.iq.FU_type_0::SimdMisc       115512      0.68%     80.33% # Type of FU issued
system.switch_cpus.iq.FU_type_0::SimdMult            0      0.00%     80.33% # Type of FU issued
system.switch_cpus.iq.FU_type_0::SimdMultAcc            0      0.00%     80.33% # Type of FU issued
system.switch_cpus.iq.FU_type_0::SimdShift         9737      0.06%     80.39% # Type of FU issued
system.switch_cpus.iq.FU_type_0::SimdShiftAcc            0      0.00%     80.39% # Type of FU issued
system.switch_cpus.iq.FU_type_0::SimdDiv            0      0.00%     80.39% # Type of FU issued
system.switch_cpus.iq.FU_type_0::SimdSqrt            0      0.00%     80.39% # Type of FU issued
system.switch_cpus.iq.FU_type_0::SimdFloatAdd           15      0.00%     80.39% # Type of FU issued
system.switch_cpus.iq.FU_type_0::SimdFloatAlu            0      0.00%     80.39% # Type of FU issued
system.switch_cpus.iq.FU_type_0::SimdFloatCmp            0      0.00%     80.39% # Type of FU issued
system.switch_cpus.iq.FU_type_0::SimdFloatCvt           67      0.00%     80.39% # Type of FU issued
system.switch_cpus.iq.FU_type_0::SimdFloatDiv           32      0.00%     80.39% # Type of FU issued
system.switch_cpus.iq.FU_type_0::SimdFloatMisc            0      0.00%     80.39% # Type of FU issued
system.switch_cpus.iq.FU_type_0::SimdFloatMult           16      0.00%     80.39% # Type of FU issued
system.switch_cpus.iq.FU_type_0::SimdFloatMultAcc            0      0.00%     80.39% # Type of FU issued
system.switch_cpus.iq.FU_type_0::SimdFloatSqrt            0      0.00%     80.39% # Type of FU issued
system.switch_cpus.iq.FU_type_0::SimdReduceAdd            0      0.00%     80.39% # Type of FU issued
system.switch_cpus.iq.FU_type_0::SimdReduceAlu            0      0.00%     80.39% # Type of FU issued
system.switch_cpus.iq.FU_type_0::SimdReduceCmp            0      0.00%     80.39% # Type of FU issued
system.switch_cpus.iq.FU_type_0::SimdFloatReduceAdd            0      0.00%     80.39% # Type of FU issued
system.switch_cpus.iq.FU_type_0::SimdFloatReduceCmp            0      0.00%     80.39% # Type of FU issued
system.switch_cpus.iq.FU_type_0::SimdAes            0      0.00%     80.39% # Type of FU issued
system.switch_cpus.iq.FU_type_0::SimdAesMix            0      0.00%     80.39% # Type of FU issued
system.switch_cpus.iq.FU_type_0::SimdSha1Hash            0      0.00%     80.39% # Type of FU issued
system.switch_cpus.iq.FU_type_0::SimdSha1Hash2            0      0.00%     80.39% # Type of FU issued
system.switch_cpus.iq.FU_type_0::SimdSha256Hash            0      0.00%     80.39% # Type of FU issued
system.switch_cpus.iq.FU_type_0::SimdSha256Hash2            0      0.00%     80.39% # Type of FU issued
system.switch_cpus.iq.FU_type_0::SimdShaSigma2            0      0.00%     80.39% # Type of FU issued
system.switch_cpus.iq.FU_type_0::SimdShaSigma3            0      0.00%     80.39% # Type of FU issued
system.switch_cpus.iq.FU_type_0::SimdPredAlu            0      0.00%     80.39% # Type of FU issued
system.switch_cpus.iq.FU_type_0::MemRead      2074974     12.22%     92.61% # Type of FU issued
system.switch_cpus.iq.FU_type_0::MemWrite       960913      5.66%     98.27% # Type of FU issued
system.switch_cpus.iq.FU_type_0::FloatMemRead       218781      1.29%     99.56% # Type of FU issued
system.switch_cpus.iq.FU_type_0::FloatMemWrite        74944      0.44%    100.00% # Type of FU issued
system.switch_cpus.iq.FU_type_0::IprAccess            0      0.00%    100.00% # Type of FU issued
system.switch_cpus.iq.FU_type_0::InstPrefetch            0      0.00%    100.00% # Type of FU issued
system.switch_cpus.iq.FU_type_0::total       16978916                       # Type of FU issued
system.switch_cpus.iq.fp_alu_accesses          727989                       # Number of floating point alu accesses
system.switch_cpus.iq.fp_inst_queue_reads      1439855                       # Number of floating instruction queue reads
system.switch_cpus.iq.fp_inst_queue_wakeup_accesses       592122                       # Number of floating instruction queue wakeup accesses
system.switch_cpus.iq.fp_inst_queue_writes      1383108                       # Number of floating instruction queue writes
system.switch_cpus.iq.fu_busy_cnt              267681                       # FU busy when requested
system.switch_cpus.iq.fu_busy_rate           0.015765                       # FU busy rate (busy events/executed inst)
system.switch_cpus.iq.fu_full::No_OpClass            0      0.00%      0.00% # attempts to use FU when none available
system.switch_cpus.iq.fu_full::IntAlu          196685     73.48%     73.48% # attempts to use FU when none available
system.switch_cpus.iq.fu_full::IntMult              0      0.00%     73.48% # attempts to use FU when none available
system.switch_cpus.iq.fu_full::IntDiv               0      0.00%     73.48% # attempts to use FU when none available
system.switch_cpus.iq.fu_full::FloatAdd             0      0.00%     73.48% # attempts to use FU when none available
system.switch_cpus.iq.fu_full::FloatCmp             0      0.00%     73.48% # attempts to use FU when none available
system.switch_cpus.iq.fu_full::FloatCvt             1      0.00%     73.48% # attempts to use FU when none available
system.switch_cpus.iq.fu_full::FloatMult            0      0.00%     73.48% # attempts to use FU when none available
system.switch_cpus.iq.fu_full::FloatMultAcc            0      0.00%     73.48% # attempts to use FU when none available
system.switch_cpus.iq.fu_full::FloatDiv             0      0.00%     73.48% # attempts to use FU when none available
system.switch_cpus.iq.fu_full::FloatMisc            0      0.00%     73.48% # attempts to use FU when none available
system.switch_cpus.iq.fu_full::FloatSqrt            0      0.00%     73.48% # attempts to use FU when none available
system.switch_cpus.iq.fu_full::SimdAdd              7      0.00%     73.48% # attempts to use FU when none available
system.switch_cpus.iq.fu_full::SimdAddAcc            0      0.00%     73.48% # attempts to use FU when none available
system.switch_cpus.iq.fu_full::SimdAlu           5030      1.88%     75.36% # attempts to use FU when none available
system.switch_cpus.iq.fu_full::SimdCmp            105      0.04%     75.40% # attempts to use FU when none available
system.switch_cpus.iq.fu_full::SimdCvt           3038      1.13%     76.53% # attempts to use FU when none available
system.switch_cpus.iq.fu_full::SimdMisc          2763      1.03%     77.57% # attempts to use FU when none available
system.switch_cpus.iq.fu_full::SimdMult             0      0.00%     77.57% # attempts to use FU when none available
system.switch_cpus.iq.fu_full::SimdMultAcc            0      0.00%     77.57% # attempts to use FU when none available
system.switch_cpus.iq.fu_full::SimdShift          336      0.13%     77.69% # attempts to use FU when none available
system.switch_cpus.iq.fu_full::SimdShiftAcc            0      0.00%     77.69% # attempts to use FU when none available
system.switch_cpus.iq.fu_full::SimdDiv              0      0.00%     77.69% # attempts to use FU when none available
system.switch_cpus.iq.fu_full::SimdSqrt             0      0.00%     77.69% # attempts to use FU when none available
system.switch_cpus.iq.fu_full::SimdFloatAdd            0      0.00%     77.69% # attempts to use FU when none available
system.switch_cpus.iq.fu_full::SimdFloatAlu            0      0.00%     77.69% # attempts to use FU when none available
system.switch_cpus.iq.fu_full::SimdFloatCmp            0      0.00%     77.69% # attempts to use FU when none available
system.switch_cpus.iq.fu_full::SimdFloatCvt            0      0.00%     77.69% # attempts to use FU when none available
system.switch_cpus.iq.fu_full::SimdFloatDiv            0      0.00%     77.69% # attempts to use FU when none available
system.switch_cpus.iq.fu_full::SimdFloatMisc            0      0.00%     77.69% # attempts to use FU when none available
system.switch_cpus.iq.fu_full::SimdFloatMult            0      0.00%     77.69% # attempts to use FU when none available
system.switch_cpus.iq.fu_full::SimdFloatMultAcc            0      0.00%     77.69% # attempts to use FU when none available
system.switch_cpus.iq.fu_full::SimdFloatSqrt            0      0.00%     77.69% # attempts to use FU when none available
system.switch_cpus.iq.fu_full::SimdReduceAdd            0      0.00%     77.69% # attempts to use FU when none available
system.switch_cpus.iq.fu_full::SimdReduceAlu            0      0.00%     77.69% # attempts to use FU when none available
system.switch_cpus.iq.fu_full::SimdReduceCmp            0      0.00%     77.69% # attempts to use FU when none available
system.switch_cpus.iq.fu_full::SimdFloatReduceAdd            0      0.00%     77.69% # attempts to use FU when none available
system.switch_cpus.iq.fu_full::SimdFloatReduceCmp            0      0.00%     77.69% # attempts to use FU when none available
system.switch_cpus.iq.fu_full::SimdAes              0      0.00%     77.69% # attempts to use FU when none available
system.switch_cpus.iq.fu_full::SimdAesMix            0      0.00%     77.69% # attempts to use FU when none available
system.switch_cpus.iq.fu_full::SimdSha1Hash            0      0.00%     77.69% # attempts to use FU when none available
system.switch_cpus.iq.fu_full::SimdSha1Hash2            0      0.00%     77.69% # attempts to use FU when none available
system.switch_cpus.iq.fu_full::SimdSha256Hash            0      0.00%     77.69% # attempts to use FU when none available
system.switch_cpus.iq.fu_full::SimdSha256Hash2            0      0.00%     77.69% # attempts to use FU when none available
system.switch_cpus.iq.fu_full::SimdShaSigma2            0      0.00%     77.69% # attempts to use FU when none available
system.switch_cpus.iq.fu_full::SimdShaSigma3            0      0.00%     77.69% # attempts to use FU when none available
system.switch_cpus.iq.fu_full::SimdPredAlu            0      0.00%     77.69% # attempts to use FU when none available
system.switch_cpus.iq.fu_full::MemRead          21042      7.86%     85.55% # attempts to use FU when none available
system.switch_cpus.iq.fu_full::MemWrite         15147      5.66%     91.21% # attempts to use FU when none available
system.switch_cpus.iq.fu_full::FloatMemRead        16412      6.13%     97.34% # attempts to use FU when none available
system.switch_cpus.iq.fu_full::FloatMemWrite         7115      2.66%    100.00% # attempts to use FU when none available
system.switch_cpus.iq.fu_full::IprAccess            0      0.00%    100.00% # attempts to use FU when none available
system.switch_cpus.iq.fu_full::InstPrefetch            0      0.00%    100.00% # attempts to use FU when none available
system.switch_cpus.iq.int_alu_accesses       15883095                       # Number of integer alu accesses
system.switch_cpus.iq.int_inst_queue_reads     41372523                       # Number of integer instruction queue reads
system.switch_cpus.iq.int_inst_queue_wakeup_accesses     15435198                       # Number of integer instruction queue wakeup accesses
system.switch_cpus.iq.int_inst_queue_writes     26802406                       # Number of integer instruction queue writes
system.switch_cpus.iq.iqInstsAdded           19476381                       # Number of instructions added to the IQ (excludes non-spec)
system.switch_cpus.iq.iqInstsIssued          16978916                       # Number of instructions issued
system.switch_cpus.iq.iqNonSpecInstsAdded         9109                       # Number of non-speculative instructions added to the IQ
system.switch_cpus.iq.iqSquashedInstsExamined      8699331                       # Number of squashed instructions iterated over during squash; mainly for profiling
system.switch_cpus.iq.iqSquashedInstsIssued        72771                       # Number of squashed instructions issued
system.switch_cpus.iq.iqSquashedNonSpecRemoved         7955                       # Number of squashed non-spec instructions that were removed
system.switch_cpus.iq.iqSquashedOperandsExamined     10677526                       # Number of squashed operands that are examined and possibly removed from graph
system.switch_cpus.iq.issued_per_cycle::samples      8514094                       # Number of insts issued each cycle
system.switch_cpus.iq.issued_per_cycle::mean     1.994213                       # Number of insts issued each cycle
system.switch_cpus.iq.issued_per_cycle::stdev     2.458181                       # Number of insts issued each cycle
system.switch_cpus.iq.issued_per_cycle::underflows            0      0.00%      0.00% # Number of insts issued each cycle
system.switch_cpus.iq.issued_per_cycle::0      4227094     49.65%     49.65% # Number of insts issued each cycle
system.switch_cpus.iq.issued_per_cycle::1       597228      7.01%     56.66% # Number of insts issued each cycle
system.switch_cpus.iq.issued_per_cycle::2       657930      7.73%     64.39% # Number of insts issued each cycle
system.switch_cpus.iq.issued_per_cycle::3       668984      7.86%     72.25% # Number of insts issued each cycle
system.switch_cpus.iq.issued_per_cycle::4       648961      7.62%     79.87% # Number of insts issued each cycle
system.switch_cpus.iq.issued_per_cycle::5       598478      7.03%     86.90% # Number of insts issued each cycle
system.switch_cpus.iq.issued_per_cycle::6       557990      6.55%     93.45% # Number of insts issued each cycle
system.switch_cpus.iq.issued_per_cycle::7       336730      3.95%     97.41% # Number of insts issued each cycle
system.switch_cpus.iq.issued_per_cycle::8       220699      2.59%    100.00% # Number of insts issued each cycle
system.switch_cpus.iq.issued_per_cycle::overflows            0      0.00%    100.00% # Number of insts issued each cycle
system.switch_cpus.iq.issued_per_cycle::min_value            0                       # Number of insts issued each cycle
system.switch_cpus.iq.issued_per_cycle::max_value            8                       # Number of insts issued each cycle
system.switch_cpus.iq.issued_per_cycle::total      8514094                       # Number of insts issued each cycle
system.switch_cpus.iq.rate                   1.867707                       # Inst issue rate
system.switch_cpus.iq.vec_alu_accesses              0                       # Number of vector alu accesses
system.switch_cpus.iq.vec_inst_queue_reads            0                       # Number of vector instruction queue reads
system.switch_cpus.iq.vec_inst_queue_wakeup_accesses            0                       # Number of vector instruction queue wakeup accesses
system.switch_cpus.iq.vec_inst_queue_writes            0                       # Number of vector instruction queue writes
system.switch_cpus.memDep0.conflictingLoads        63338                       # Number of conflicting loads.
system.switch_cpus.memDep0.conflictingStores        59913                       # Number of conflicting stores.
system.switch_cpus.memDep0.insertedLoads      2545527                       # Number of loads inserted to the mem dependence unit.
system.switch_cpus.memDep0.insertedStores      1210045                       # Number of stores inserted to the mem dependence unit.
system.switch_cpus.misc_regfile_reads         6704354                       # number of misc regfile reads
system.switch_cpus.misc_regfile_writes            999                       # number of misc regfile writes
system.switch_cpus.numCycles                  9090781                       # number of cpu cycles simulated
system.switch_cpus.numWorkItemsCompleted            0                       # number of work items this cpu completed
system.switch_cpus.numWorkItemsStarted              0                       # number of work items this cpu started
system.switch_cpus.timesIdled                    8686                       # Number of times that the entire CPU went into an idle state and unscheduled itself
system.tol2bus.snoop_filter.hit_multi_requests          208                       # Number of requests hitting in the snoop filter with multiple (>1) holders of the requested data.
system.tol2bus.snoop_filter.hit_multi_snoops            0                       # Number of snoops hitting in the snoop filter with multiple (>1) holders of the requested data.
system.tol2bus.snoop_filter.hit_single_requests        59039                       # Number of requests hitting in the snoop filter with a single holder of the requested data.
system.tol2bus.snoop_filter.hit_single_snoops         1295                       # Number of snoops hitting in the snoop filter with a single holder of the requested data.
system.tol2bus.snoop_filter.tot_requests       118473                       # Total number of requests made to the snoop filter.
system.tol2bus.snoop_filter.tot_snoops           1295                       # Total number of snoops made to the snoop filter.
system.clk_domain.clock                          1000                       # Clock period in ticks
system.cpu.branchPred.lookups                       0                       # Number of BP lookups
system.cpu.branchPred.condPredicted                 0                       # Number of conditional branches predicted
system.cpu.branchPred.condIncorrect                 0                       # Number of conditional branches incorrect
system.cpu.branchPred.BTBLookups                    0                       # Number of BTB lookups
system.cpu.branchPred.BTBHits                       0                       # Number of BTB hits
system.cpu.branchPred.BTBHitPct                   nan                       # BTB Hit Percentage
system.cpu.branchPred.RASUsed                       0                       # Number of times the RAS was used to get a target.
system.cpu.branchPred.RASIncorrect                  0                       # Number of incorrect RAS predictions.
system.cpu.branchPred.indirectLookups               0                       # Number of indirect predictor lookups.
system.cpu.branchPred.indirectHits                  0                       # Number of indirect target hits.
system.cpu.branchPred.indirectMisses                0                       # Number of indirect misses.
system.cpu.branchPred.indirectMispredicted            0                       # Number of mispredicted indirect branches.
system.cpu.dcache.demand_hits::.switch_cpus.data      2570864                       # number of demand (read+write) hits
system.cpu.dcache.demand_hits::total          2570864                       # number of demand (read+write) hits
system.cpu.dcache.overall_hits::.switch_cpus.data      2574028                       # number of overall hits
system.cpu.dcache.overall_hits::total         2574028                       # number of overall hits
system.cpu.dcache.demand_misses::.switch_cpus.data       100019                       # number of demand (read+write) misses
system.cpu.dcache.demand_misses::total         100019                       # number of demand (read+write) misses
system.cpu.dcache.overall_misses::.switch_cpus.data       100093                       # number of overall misses
system.cpu.dcache.overall_misses::total        100093                       # number of overall misses
system.cpu.dcache.demand_miss_latency::.switch_cpus.data   5851479496                       # number of demand (read+write) miss cycles
system.cpu.dcache.demand_miss_latency::total   5851479496                       # number of demand (read+write) miss cycles
system.cpu.dcache.overall_miss_latency::.switch_cpus.data   5851479496                       # number of overall miss cycles
system.cpu.dcache.overall_miss_latency::total   5851479496                       # number of overall miss cycles
system.cpu.dcache.demand_accesses::.switch_cpus.data      2670883                       # number of demand (read+write) accesses
system.cpu.dcache.demand_accesses::total      2670883                       # number of demand (read+write) accesses
system.cpu.dcache.overall_accesses::.switch_cpus.data      2674121                       # number of overall (read+write) accesses
system.cpu.dcache.overall_accesses::total      2674121                       # number of overall (read+write) accesses
system.cpu.dcache.demand_miss_rate::.switch_cpus.data     0.037448                       # miss rate for demand accesses
system.cpu.dcache.demand_miss_rate::total     0.037448                       # miss rate for demand accesses
system.cpu.dcache.overall_miss_rate::.switch_cpus.data     0.037430                       # miss rate for overall accesses
system.cpu.dcache.overall_miss_rate::total     0.037430                       # miss rate for overall accesses
system.cpu.dcache.demand_avg_miss_latency::.switch_cpus.data 58503.679261                       # average overall miss latency
system.cpu.dcache.demand_avg_miss_latency::total 58503.679261                       # average overall miss latency
system.cpu.dcache.overall_avg_miss_latency::.switch_cpus.data 58460.426763                       # average overall miss latency
system.cpu.dcache.overall_avg_miss_latency::total 58460.426763                       # average overall miss latency
system.cpu.dcache.blocked_cycles::no_mshrs       177997                       # number of cycles access was blocked
system.cpu.dcache.blocked_cycles::no_targets          612                       # number of cycles access was blocked
system.cpu.dcache.blocked::no_mshrs              3515                       # number of cycles access was blocked
system.cpu.dcache.blocked::no_targets               9                       # number of cycles access was blocked
system.cpu.dcache.avg_blocked_cycles::no_mshrs    50.639260                       # average number of cycles each access was blocked
system.cpu.dcache.avg_blocked_cycles::no_targets           68                       # average number of cycles each access was blocked
system.cpu.dcache.writebacks::.writebacks        14281                       # number of writebacks
system.cpu.dcache.writebacks::total             14281                       # number of writebacks
system.cpu.dcache.demand_mshr_hits::.switch_cpus.data        66773                       # number of demand (read+write) MSHR hits
system.cpu.dcache.demand_mshr_hits::total        66773                       # number of demand (read+write) MSHR hits
system.cpu.dcache.overall_mshr_hits::.switch_cpus.data        66773                       # number of overall MSHR hits
system.cpu.dcache.overall_mshr_hits::total        66773                       # number of overall MSHR hits
system.cpu.dcache.demand_mshr_misses::.switch_cpus.data        33246                       # number of demand (read+write) MSHR misses
system.cpu.dcache.demand_mshr_misses::total        33246                       # number of demand (read+write) MSHR misses
system.cpu.dcache.overall_mshr_misses::.switch_cpus.data        33273                       # number of overall MSHR misses
system.cpu.dcache.overall_mshr_misses::total        33273                       # number of overall MSHR misses
system.cpu.dcache.demand_mshr_miss_latency::.switch_cpus.data   1931629996                       # number of demand (read+write) MSHR miss cycles
system.cpu.dcache.demand_mshr_miss_latency::total   1931629996                       # number of demand (read+write) MSHR miss cycles
system.cpu.dcache.overall_mshr_miss_latency::.switch_cpus.data   1932984496                       # number of overall MSHR miss cycles
system.cpu.dcache.overall_mshr_miss_latency::total   1932984496                       # number of overall MSHR miss cycles
system.cpu.dcache.demand_mshr_miss_rate::.switch_cpus.data     0.012448                       # mshr miss rate for demand accesses
system.cpu.dcache.demand_mshr_miss_rate::total     0.012448                       # mshr miss rate for demand accesses
system.cpu.dcache.overall_mshr_miss_rate::.switch_cpus.data     0.012443                       # mshr miss rate for overall accesses
system.cpu.dcache.overall_mshr_miss_rate::total     0.012443                       # mshr miss rate for overall accesses
system.cpu.dcache.demand_avg_mshr_miss_latency::.switch_cpus.data 58101.124827                       # average overall mshr miss latency
system.cpu.dcache.demand_avg_mshr_miss_latency::total 58101.124827                       # average overall mshr miss latency
system.cpu.dcache.overall_avg_mshr_miss_latency::.switch_cpus.data 58094.686262                       # average overall mshr miss latency
system.cpu.dcache.overall_avg_mshr_miss_latency::total 58094.686262                       # average overall mshr miss latency
system.cpu.dcache.replacements                  33239                       # number of replacements
system.cpu.dcache.ReadReq_hits::.switch_cpus.data      1890686                       # number of ReadReq hits
system.cpu.dcache.ReadReq_hits::total         1890686                       # number of ReadReq hits
system.cpu.dcache.ReadReq_misses::.switch_cpus.data        92089                       # number of ReadReq misses
system.cpu.dcache.ReadReq_misses::total         92089                       # number of ReadReq misses
system.cpu.dcache.ReadReq_miss_latency::.switch_cpus.data   5295628500                       # number of ReadReq miss cycles
system.cpu.dcache.ReadReq_miss_latency::total   5295628500                       # number of ReadReq miss cycles
system.cpu.dcache.ReadReq_accesses::.switch_cpus.data      1982775                       # number of ReadReq accesses(hits+misses)
system.cpu.dcache.ReadReq_accesses::total      1982775                       # number of ReadReq accesses(hits+misses)
system.cpu.dcache.ReadReq_miss_rate::.switch_cpus.data     0.046445                       # miss rate for ReadReq accesses
system.cpu.dcache.ReadReq_miss_rate::total     0.046445                       # miss rate for ReadReq accesses
system.cpu.dcache.ReadReq_avg_miss_latency::.switch_cpus.data 57505.548980                       # average ReadReq miss latency
system.cpu.dcache.ReadReq_avg_miss_latency::total 57505.548980                       # average ReadReq miss latency
system.cpu.dcache.ReadReq_mshr_hits::.switch_cpus.data        66754                       # number of ReadReq MSHR hits
system.cpu.dcache.ReadReq_mshr_hits::total        66754                       # number of ReadReq MSHR hits
system.cpu.dcache.ReadReq_mshr_misses::.switch_cpus.data        25335                       # number of ReadReq MSHR misses
system.cpu.dcache.ReadReq_mshr_misses::total        25335                       # number of ReadReq MSHR misses
system.cpu.dcache.ReadReq_mshr_miss_latency::.switch_cpus.data   1384295000                       # number of ReadReq MSHR miss cycles
system.cpu.dcache.ReadReq_mshr_miss_latency::total   1384295000                       # number of ReadReq MSHR miss cycles
system.cpu.dcache.ReadReq_mshr_miss_rate::.switch_cpus.data     0.012778                       # mshr miss rate for ReadReq accesses
system.cpu.dcache.ReadReq_mshr_miss_rate::total     0.012778                       # mshr miss rate for ReadReq accesses
system.cpu.dcache.ReadReq_avg_mshr_miss_latency::.switch_cpus.data 54639.628972                       # average ReadReq mshr miss latency
system.cpu.dcache.ReadReq_avg_mshr_miss_latency::total 54639.628972                       # average ReadReq mshr miss latency
system.cpu.dcache.WriteReq_hits::.switch_cpus.data       680178                       # number of WriteReq hits
system.cpu.dcache.WriteReq_hits::total         680178                       # number of WriteReq hits
system.cpu.dcache.WriteReq_misses::.switch_cpus.data         7930                       # number of WriteReq misses
system.cpu.dcache.WriteReq_misses::total         7930                       # number of WriteReq misses
system.cpu.dcache.WriteReq_miss_latency::.switch_cpus.data    555850996                       # number of WriteReq miss cycles
system.cpu.dcache.WriteReq_miss_latency::total    555850996                       # number of WriteReq miss cycles
system.cpu.dcache.WriteReq_accesses::.switch_cpus.data       688108                       # number of WriteReq accesses(hits+misses)
system.cpu.dcache.WriteReq_accesses::total       688108                       # number of WriteReq accesses(hits+misses)
system.cpu.dcache.WriteReq_miss_rate::.switch_cpus.data     0.011524                       # miss rate for WriteReq accesses
system.cpu.dcache.WriteReq_miss_rate::total     0.011524                       # miss rate for WriteReq accesses
system.cpu.dcache.WriteReq_avg_miss_latency::.switch_cpus.data 70094.703153                       # average WriteReq miss latency
system.cpu.dcache.WriteReq_avg_miss_latency::total 70094.703153                       # average WriteReq miss latency
system.cpu.dcache.WriteReq_mshr_hits::.switch_cpus.data           19                       # number of WriteReq MSHR hits
system.cpu.dcache.WriteReq_mshr_hits::total           19                       # number of WriteReq MSHR hits
system.cpu.dcache.WriteReq_mshr_misses::.switch_cpus.data         7911                       # number of WriteReq MSHR misses
system.cpu.dcache.WriteReq_mshr_misses::total         7911                       # number of WriteReq MSHR misses
system.cpu.dcache.WriteReq_mshr_miss_latency::.switch_cpus.data    547334996                       # number of WriteReq MSHR miss cycles
system.cpu.dcache.WriteReq_mshr_miss_latency::total    547334996                       # number of WriteReq MSHR miss cycles
system.cpu.dcache.WriteReq_mshr_miss_rate::.switch_cpus.data     0.011497                       # mshr miss rate for WriteReq accesses
system.cpu.dcache.WriteReq_mshr_miss_rate::total     0.011497                       # mshr miss rate for WriteReq accesses
system.cpu.dcache.WriteReq_avg_mshr_miss_latency::.switch_cpus.data 69186.575149                       # average WriteReq mshr miss latency
system.cpu.dcache.WriteReq_avg_mshr_miss_latency::total 69186.575149                       # average WriteReq mshr miss latency
system.cpu.dcache.SoftPFReq_hits::.switch_cpus.data         3164                       # number of SoftPFReq hits
system.cpu.dcache.SoftPFReq_hits::total          3164                       # number of SoftPFReq hits
system.cpu.dcache.SoftPFReq_misses::.switch_cpus.data           74                       # number of SoftPFReq misses
system.cpu.dcache.SoftPFReq_misses::total           74                       # number of SoftPFReq misses
system.cpu.dcache.SoftPFReq_accesses::.switch_cpus.data         3238                       # number of SoftPFReq accesses(hits+misses)
system.cpu.dcache.SoftPFReq_accesses::total         3238                       # number of SoftPFReq accesses(hits+misses)
system.cpu.dcache.SoftPFReq_miss_rate::.switch_cpus.data     0.022854                       # miss rate for SoftPFReq accesses
system.cpu.dcache.SoftPFReq_miss_rate::total     0.022854                       # miss rate for SoftPFReq accesses
system.cpu.dcache.SoftPFReq_mshr_misses::.switch_cpus.data           27                       # number of SoftPFReq MSHR misses
system.cpu.dcache.SoftPFReq_mshr_misses::total           27                       # number of SoftPFReq MSHR misses
system.cpu.dcache.SoftPFReq_mshr_miss_latency::.switch_cpus.data      1354500                       # number of SoftPFReq MSHR miss cycles
system.cpu.dcache.SoftPFReq_mshr_miss_latency::total      1354500                       # number of SoftPFReq MSHR miss cycles
system.cpu.dcache.SoftPFReq_mshr_miss_rate::.switch_cpus.data     0.008338                       # mshr miss rate for SoftPFReq accesses
system.cpu.dcache.SoftPFReq_mshr_miss_rate::total     0.008338                       # mshr miss rate for SoftPFReq accesses
system.cpu.dcache.SoftPFReq_avg_mshr_miss_latency::.switch_cpus.data 50166.666667                       # average SoftPFReq mshr miss latency
system.cpu.dcache.SoftPFReq_avg_mshr_miss_latency::total 50166.666667                       # average SoftPFReq mshr miss latency
system.cpu.dcache.power_state.pwrStateResidencyTicks::UNDEFINED   5595938000                       # Cumulative time (in ticks) in various power states
system.cpu.dcache.tags.tagsinuse                 1024                       # Cycle average of tags in use
system.cpu.dcache.tags.total_refs             2822517                       # Total number of references to valid blocks.
system.cpu.dcache.tags.sampled_refs             34263                       # Sample count of references to valid blocks.
system.cpu.dcache.tags.avg_refs             82.377988                       # Average number of references to valid blocks.
system.cpu.dcache.tags.warmup_cycle                 0                       # Cycle when the warmup percentage was hit.
system.cpu.dcache.tags.occ_blocks::.cpu.data    24.591326                       # Average occupied blocks per requestor
system.cpu.dcache.tags.occ_blocks::.switch_cpus.data   999.408674                       # Average occupied blocks per requestor
system.cpu.dcache.tags.occ_percent::.cpu.data     0.024015                       # Average percentage of cache occupancy
system.cpu.dcache.tags.occ_percent::.switch_cpus.data     0.975985                       # Average percentage of cache occupancy
system.cpu.dcache.tags.occ_percent::total            1                       # Average percentage of cache occupancy
system.cpu.dcache.tags.occ_task_id_blocks::1024         1024                       # Occupied blocks per task id
system.cpu.dcache.tags.age_task_id_blocks_1024::0           86                       # Occupied blocks per task id
system.cpu.dcache.tags.age_task_id_blocks_1024::1          720                       # Occupied blocks per task id
system.cpu.dcache.tags.age_task_id_blocks_1024::2          211                       # Occupied blocks per task id
system.cpu.dcache.tags.age_task_id_blocks_1024::3            7                       # Occupied blocks per task id
system.cpu.dcache.tags.occ_task_id_percent::1024            1                       # Percentage of cache occupancy per task id
system.cpu.dcache.tags.tag_accesses           5381481                       # Number of tag accesses
system.cpu.dcache.tags.data_accesses          5381481                       # Number of data accesses
system.cpu.dcache.tags.power_state.pwrStateResidencyTicks::UNDEFINED   5595938000                       # Cumulative time (in ticks) in various power states
system.cpu.dtb.rdAccesses                           0                       # TLB accesses on read requests
system.cpu.dtb.wrAccesses                           0                       # TLB accesses on write requests
system.cpu.dtb.rdMisses                             0                       # TLB misses on read requests
system.cpu.dtb.wrMisses                             0                       # TLB misses on write requests
system.cpu.dtb.walker.power_state.pwrStateResidencyTicks::UNDEFINED   5595938000                       # Cumulative time (in ticks) in various power states
system.cpu.dtb_walker_cache.blocked_cycles::no_mshrs            0                       # number of cycles access was blocked
system.cpu.dtb_walker_cache.blocked_cycles::no_targets            0                       # number of cycles access was blocked
system.cpu.dtb_walker_cache.blocked::no_mshrs            0                       # number of cycles access was blocked
system.cpu.dtb_walker_cache.blocked::no_targets            0                       # number of cycles access was blocked
system.cpu.dtb_walker_cache.avg_blocked_cycles::no_mshrs          nan                       # average number of cycles each access was blocked
system.cpu.dtb_walker_cache.avg_blocked_cycles::no_targets          nan                       # average number of cycles each access was blocked
system.cpu.dtb_walker_cache.replacements            0                       # number of replacements
system.cpu.dtb_walker_cache.power_state.pwrStateResidencyTicks::UNDEFINED   5595938000                       # Cumulative time (in ticks) in various power states
system.cpu.dtb_walker_cache.tags.tagsinuse            0                       # Cycle average of tags in use
system.cpu.dtb_walker_cache.tags.total_refs            0                       # Total number of references to valid blocks.
system.cpu.dtb_walker_cache.tags.sampled_refs            0                       # Sample count of references to valid blocks.
system.cpu.dtb_walker_cache.tags.avg_refs          nan                       # Average number of references to valid blocks.
system.cpu.dtb_walker_cache.tags.warmup_cycle            0                       # Cycle when the warmup percentage was hit.
system.cpu.dtb_walker_cache.tags.tag_accesses            0                       # Number of tag accesses
system.cpu.dtb_walker_cache.tags.data_accesses            0                       # Number of data accesses
system.cpu.dtb_walker_cache.tags.power_state.pwrStateResidencyTicks::UNDEFINED   5595938000                       # Cumulative time (in ticks) in various power states
system.cpu.icache.demand_hits::.switch_cpus.inst      1822945                       # number of demand (read+write) hits
system.cpu.icache.demand_hits::total          1822945                       # number of demand (read+write) hits
system.cpu.icache.overall_hits::.switch_cpus.inst      1822945                       # number of overall hits
system.cpu.icache.overall_hits::total         1822945                       # number of overall hits
system.cpu.icache.demand_misses::.switch_cpus.inst        31292                       # number of demand (read+write) misses
system.cpu.icache.demand_misses::total          31292                       # number of demand (read+write) misses
system.cpu.icache.overall_misses::.switch_cpus.inst        31292                       # number of overall misses
system.cpu.icache.overall_misses::total         31292                       # number of overall misses
system.cpu.icache.demand_miss_latency::.switch_cpus.inst   1026423499                       # number of demand (read+write) miss cycles
system.cpu.icache.demand_miss_latency::total   1026423499                       # number of demand (read+write) miss cycles
system.cpu.icache.overall_miss_latency::.switch_cpus.inst   1026423499                       # number of overall miss cycles
system.cpu.icache.overall_miss_latency::total   1026423499                       # number of overall miss cycles
system.cpu.icache.demand_accesses::.switch_cpus.inst      1854237                       # number of demand (read+write) accesses
system.cpu.icache.demand_accesses::total      1854237                       # number of demand (read+write) accesses
system.cpu.icache.overall_accesses::.switch_cpus.inst      1854237                       # number of overall (read+write) accesses
system.cpu.icache.overall_accesses::total      1854237                       # number of overall (read+write) accesses
system.cpu.icache.demand_miss_rate::.switch_cpus.inst     0.016876                       # miss rate for demand accesses
system.cpu.icache.demand_miss_rate::total     0.016876                       # miss rate for demand accesses
system.cpu.icache.overall_miss_rate::.switch_cpus.inst     0.016876                       # miss rate for overall accesses
system.cpu.icache.overall_miss_rate::total     0.016876                       # miss rate for overall accesses
system.cpu.icache.demand_avg_miss_latency::.switch_cpus.inst 32801.466797                       # average overall miss latency
system.cpu.icache.demand_avg_miss_latency::total 32801.466797                       # average overall miss latency
system.cpu.icache.overall_avg_miss_latency::.switch_cpus.inst 32801.466797                       # average overall miss latency
system.cpu.icache.overall_avg_miss_latency::total 32801.466797                       # average overall miss latency
system.cpu.icache.blocked_cycles::no_mshrs         2039                       # number of cycles access was blocked
system.cpu.icache.blocked_cycles::no_targets            0                       # number of cycles access was blocked
system.cpu.icache.blocked::no_mshrs                60                       # number of cycles access was blocked
system.cpu.icache.blocked::no_targets               0                       # number of cycles access was blocked
system.cpu.icache.avg_blocked_cycles::no_mshrs    33.983333                       # average number of cycles each access was blocked
system.cpu.icache.avg_blocked_cycles::no_targets          nan                       # average number of cycles each access was blocked
system.cpu.icache.writebacks::.writebacks        25786                       # number of writebacks
system.cpu.icache.writebacks::total             25786                       # number of writebacks
system.cpu.icache.demand_mshr_hits::.switch_cpus.inst         5117                       # number of demand (read+write) MSHR hits
system.cpu.icache.demand_mshr_hits::total         5117                       # number of demand (read+write) MSHR hits
system.cpu.icache.overall_mshr_hits::.switch_cpus.inst         5117                       # number of overall MSHR hits
system.cpu.icache.overall_mshr_hits::total         5117                       # number of overall MSHR hits
system.cpu.icache.demand_mshr_misses::.switch_cpus.inst        26175                       # number of demand (read+write) MSHR misses
system.cpu.icache.demand_mshr_misses::total        26175                       # number of demand (read+write) MSHR misses
system.cpu.icache.overall_mshr_misses::.switch_cpus.inst        26175                       # number of overall MSHR misses
system.cpu.icache.overall_mshr_misses::total        26175                       # number of overall MSHR misses
system.cpu.icache.demand_mshr_miss_latency::.switch_cpus.inst    826111999                       # number of demand (read+write) MSHR miss cycles
system.cpu.icache.demand_mshr_miss_latency::total    826111999                       # number of demand (read+write) MSHR miss cycles
system.cpu.icache.overall_mshr_miss_latency::.switch_cpus.inst    826111999                       # number of overall MSHR miss cycles
system.cpu.icache.overall_mshr_miss_latency::total    826111999                       # number of overall MSHR miss cycles
system.cpu.icache.demand_mshr_miss_rate::.switch_cpus.inst     0.014116                       # mshr miss rate for demand accesses
system.cpu.icache.demand_mshr_miss_rate::total     0.014116                       # mshr miss rate for demand accesses
system.cpu.icache.overall_mshr_miss_rate::.switch_cpus.inst     0.014116                       # mshr miss rate for overall accesses
system.cpu.icache.overall_mshr_miss_rate::total     0.014116                       # mshr miss rate for overall accesses
system.cpu.icache.demand_avg_mshr_miss_latency::.switch_cpus.inst 31561.107889                       # average overall mshr miss latency
system.cpu.icache.demand_avg_mshr_miss_latency::total 31561.107889                       # average overall mshr miss latency
system.cpu.icache.overall_avg_mshr_miss_latency::.switch_cpus.inst 31561.107889                       # average overall mshr miss latency
system.cpu.icache.overall_avg_mshr_miss_latency::total 31561.107889                       # average overall mshr miss latency
system.cpu.icache.replacements                  25786                       # number of replacements
system.cpu.icache.ReadReq_hits::.switch_cpus.inst      1822945                       # number of ReadReq hits
system.cpu.icache.ReadReq_hits::total         1822945                       # number of ReadReq hits
system.cpu.icache.ReadReq_misses::.switch_cpus.inst        31292                       # number of ReadReq misses
system.cpu.icache.ReadReq_misses::total         31292                       # number of ReadReq misses
system.cpu.icache.ReadReq_miss_latency::.switch_cpus.inst   1026423499                       # number of ReadReq miss cycles
system.cpu.icache.ReadReq_miss_latency::total   1026423499                       # number of ReadReq miss cycles
system.cpu.icache.ReadReq_accesses::.switch_cpus.inst      1854237                       # number of ReadReq accesses(hits+misses)
system.cpu.icache.ReadReq_accesses::total      1854237                       # number of ReadReq accesses(hits+misses)
system.cpu.icache.ReadReq_miss_rate::.switch_cpus.inst     0.016876                       # miss rate for ReadReq accesses
system.cpu.icache.ReadReq_miss_rate::total     0.016876                       # miss rate for ReadReq accesses
system.cpu.icache.ReadReq_avg_miss_latency::.switch_cpus.inst 32801.466797                       # average ReadReq miss latency
system.cpu.icache.ReadReq_avg_miss_latency::total 32801.466797                       # average ReadReq miss latency
system.cpu.icache.ReadReq_mshr_hits::.switch_cpus.inst         5117                       # number of ReadReq MSHR hits
system.cpu.icache.ReadReq_mshr_hits::total         5117                       # number of ReadReq MSHR hits
system.cpu.icache.ReadReq_mshr_misses::.switch_cpus.inst        26175                       # number of ReadReq MSHR misses
system.cpu.icache.ReadReq_mshr_misses::total        26175                       # number of ReadReq MSHR misses
system.cpu.icache.ReadReq_mshr_miss_latency::.switch_cpus.inst    826111999                       # number of ReadReq MSHR miss cycles
system.cpu.icache.ReadReq_mshr_miss_latency::total    826111999                       # number of ReadReq MSHR miss cycles
system.cpu.icache.ReadReq_mshr_miss_rate::.switch_cpus.inst     0.014116                       # mshr miss rate for ReadReq accesses
system.cpu.icache.ReadReq_mshr_miss_rate::total     0.014116                       # mshr miss rate for ReadReq accesses
system.cpu.icache.ReadReq_avg_mshr_miss_latency::.switch_cpus.inst 31561.107889                       # average ReadReq mshr miss latency
system.cpu.icache.ReadReq_avg_mshr_miss_latency::total 31561.107889                       # average ReadReq mshr miss latency
system.cpu.icache.power_state.pwrStateResidencyTicks::UNDEFINED   5595938000                       # Cumulative time (in ticks) in various power states
system.cpu.icache.tags.tagsinuse           944.621123                       # Cycle average of tags in use
system.cpu.icache.tags.total_refs             3182689                       # Total number of references to valid blocks.
system.cpu.icache.tags.sampled_refs             26850                       # Sample count of references to valid blocks.
system.cpu.icache.tags.avg_refs            118.535903                       # Average number of references to valid blocks.
system.cpu.icache.tags.warmup_cycle                 0                       # Cycle when the warmup percentage was hit.
system.cpu.icache.tags.occ_blocks::.cpu.inst   184.205952                       # Average occupied blocks per requestor
system.cpu.icache.tags.occ_blocks::.switch_cpus.inst   760.415170                       # Average occupied blocks per requestor
system.cpu.icache.tags.occ_percent::.cpu.inst     0.179889                       # Average percentage of cache occupancy
system.cpu.icache.tags.occ_percent::.switch_cpus.inst     0.742593                       # Average percentage of cache occupancy
system.cpu.icache.tags.occ_percent::total     0.922482                       # Average percentage of cache occupancy
system.cpu.icache.tags.occ_task_id_blocks::1024         1021                       # Occupied blocks per task id
system.cpu.icache.tags.age_task_id_blocks_1024::0           84                       # Occupied blocks per task id
system.cpu.icache.tags.age_task_id_blocks_1024::1          226                       # Occupied blocks per task id
system.cpu.icache.tags.age_task_id_blocks_1024::2          689                       # Occupied blocks per task id
system.cpu.icache.tags.age_task_id_blocks_1024::3           22                       # Occupied blocks per task id
system.cpu.icache.tags.occ_task_id_percent::1024     0.997070                       # Percentage of cache occupancy per task id
system.cpu.icache.tags.tag_accesses           3734648                       # Number of tag accesses
system.cpu.icache.tags.data_accesses          3734648                       # Number of data accesses
system.cpu.icache.tags.power_state.pwrStateResidencyTicks::UNDEFINED   5595938000                       # Cumulative time (in ticks) in various power states
system.cpu.interrupts.clk_domain.clock           8000                       # Clock period in ticks
system.cpu.itb.rdAccesses                           0                       # TLB accesses on read requests
system.cpu.itb.wrAccesses                           0                       # TLB accesses on write requests
system.cpu.itb.rdMisses                             0                       # TLB misses on read requests
system.cpu.itb.wrMisses                             0                       # TLB misses on write requests
system.cpu.itb.walker.power_state.pwrStateResidencyTicks::UNDEFINED   5595938000                       # Cumulative time (in ticks) in various power states
system.cpu.itb_walker_cache.blocked_cycles::no_mshrs            0                       # number of cycles access was blocked
system.cpu.itb_walker_cache.blocked_cycles::no_targets            0                       # number of cycles access was blocked
system.cpu.itb_walker_cache.blocked::no_mshrs            0                       # number of cycles access was blocked
system.cpu.itb_walker_cache.blocked::no_targets            0                       # number of cycles access was blocked
system.cpu.itb_walker_cache.avg_blocked_cycles::no_mshrs          nan                       # average number of cycles each access was blocked
system.cpu.itb_walker_cache.avg_blocked_cycles::no_targets          nan                       # average number of cycles each access was blocked
system.cpu.itb_walker_cache.replacements            0                       # number of replacements
system.cpu.itb_walker_cache.power_state.pwrStateResidencyTicks::UNDEFINED   5595938000                       # Cumulative time (in ticks) in various power states
system.cpu.itb_walker_cache.tags.tagsinuse            0                       # Cycle average of tags in use
system.cpu.itb_walker_cache.tags.total_refs            0                       # Total number of references to valid blocks.
system.cpu.itb_walker_cache.tags.sampled_refs            0                       # Sample count of references to valid blocks.
system.cpu.itb_walker_cache.tags.avg_refs          nan                       # Average number of references to valid blocks.
system.cpu.itb_walker_cache.tags.warmup_cycle            0                       # Cycle when the warmup percentage was hit.
system.cpu.itb_walker_cache.tags.tag_accesses            0                       # Number of tag accesses
system.cpu.itb_walker_cache.tags.data_accesses            0                       # Number of data accesses
system.cpu.itb_walker_cache.tags.power_state.pwrStateResidencyTicks::UNDEFINED   5595938000                       # Cumulative time (in ticks) in various power states
system.cpu.power_state.pwrStateResidencyTicks::OFF   4545390500                       # Cumulative time (in ticks) in various power states
system.cpu.thread_0.numInsts                        0                       # Number of Instructions committed
system.cpu.thread_0.numOps                          0                       # Number of Ops committed
system.cpu.thread_0.numMemRefs                      0                       # Number of Memory References
system.cpu_clk_domain.clock                       500                       # Clock period in ticks
system.cpu_voltage_domain.voltage                   1                       # Voltage in Volts
system.l2.demand_hits::.switch_cpus.inst        18854                       # number of demand (read+write) hits
system.l2.demand_hits::.switch_cpus.data        11630                       # number of demand (read+write) hits
system.l2.demand_hits::total                    30484                       # number of demand (read+write) hits
system.l2.overall_hits::.switch_cpus.inst        18854                       # number of overall hits
system.l2.overall_hits::.switch_cpus.data        11630                       # number of overall hits
system.l2.overall_hits::total                   30484                       # number of overall hits
system.l2.demand_misses::.switch_cpus.inst         7222                       # number of demand (read+write) misses
system.l2.demand_misses::.switch_cpus.data        21609                       # number of demand (read+write) misses
system.l2.demand_misses::total                  28831                       # number of demand (read+write) misses
system.l2.overall_misses::.switch_cpus.inst         7222                       # number of overall misses
system.l2.overall_misses::.switch_cpus.data        21609                       # number of overall misses
system.l2.overall_misses::total                 28831                       # number of overall misses
system.l2.demand_miss_latency::.switch_cpus.inst    586917500                       # number of demand (read+write) miss cycles
system.l2.demand_miss_latency::.switch_cpus.data   1759052500                       # number of demand (read+write) miss cycles
system.l2.demand_miss_latency::total       2345970000                       # number of demand (read+write) miss cycles
system.l2.overall_miss_latency::.switch_cpus.inst    586917500                       # number of overall miss cycles
system.l2.overall_miss_latency::.switch_cpus.data   1759052500                       # number of overall miss cycles
system.l2.overall_miss_latency::total      2345970000                       # number of overall miss cycles
system.l2.demand_accesses::.switch_cpus.inst        26076                       # number of demand (read+write) accesses
system.l2.demand_accesses::.switch_cpus.data        33239                       # number of demand (read+write) accesses
system.l2.demand_accesses::total                59315                       # number of demand (read+write) accesses
system.l2.overall_accesses::.switch_cpus.inst        26076                       # number of overall (read+write) accesses
system.l2.overall_accesses::.switch_cpus.data        33239                       # number of overall (read+write) accesses
system.l2.overall_accesses::total               59315                       # number of overall (read+write) accesses
system.l2.demand_miss_rate::.switch_cpus.inst     0.276960                       # miss rate for demand accesses
system.l2.demand_miss_rate::.switch_cpus.data     0.650110                       # miss rate for demand accesses
system.l2.demand_miss_rate::total            0.486066                       # miss rate for demand accesses
system.l2.overall_miss_rate::.switch_cpus.inst     0.276960                       # miss rate for overall accesses
system.l2.overall_miss_rate::.switch_cpus.data     0.650110                       # miss rate for overall accesses
system.l2.overall_miss_rate::total           0.486066                       # miss rate for overall accesses
system.l2.demand_avg_miss_latency::.switch_cpus.inst 81268.000554                       # average overall miss latency
system.l2.demand_avg_miss_latency::.switch_cpus.data 81403.697533                       # average overall miss latency
system.l2.demand_avg_miss_latency::total 81369.706219                       # average overall miss latency
system.l2.overall_avg_miss_latency::.switch_cpus.inst 81268.000554                       # average overall miss latency
system.l2.overall_avg_miss_latency::.switch_cpus.data 81403.697533                       # average overall miss latency
system.l2.overall_avg_miss_latency::total 81369.706219                       # average overall miss latency
system.l2.blocked_cycles::no_mshrs                  0                       # number of cycles access was blocked
system.l2.blocked_cycles::no_targets                0                       # number of cycles access was blocked
system.l2.blocked::no_mshrs                         0                       # number of cycles access was blocked
system.l2.blocked::no_targets                       0                       # number of cycles access was blocked
system.l2.avg_blocked_cycles::no_mshrs            nan                       # average number of cycles each access was blocked
system.l2.avg_blocked_cycles::no_targets          nan                       # average number of cycles each access was blocked
system.l2.writebacks::.writebacks                6482                       # number of writebacks
system.l2.writebacks::total                      6482                       # number of writebacks
system.l2.demand_mshr_hits::.switch_cpus.inst            1                       # number of demand (read+write) MSHR hits
system.l2.demand_mshr_hits::.switch_cpus.data            3                       # number of demand (read+write) MSHR hits
system.l2.demand_mshr_hits::total                   4                       # number of demand (read+write) MSHR hits
system.l2.overall_mshr_hits::.switch_cpus.inst            1                       # number of overall MSHR hits
system.l2.overall_mshr_hits::.switch_cpus.data            3                       # number of overall MSHR hits
system.l2.overall_mshr_hits::total                  4                       # number of overall MSHR hits
system.l2.demand_mshr_misses::.switch_cpus.inst         7221                       # number of demand (read+write) MSHR misses
system.l2.demand_mshr_misses::.switch_cpus.data        21606                       # number of demand (read+write) MSHR misses
system.l2.demand_mshr_misses::total             28827                       # number of demand (read+write) MSHR misses
system.l2.overall_mshr_misses::.switch_cpus.inst         7221                       # number of overall MSHR misses
system.l2.overall_mshr_misses::.switch_cpus.data        21606                       # number of overall MSHR misses
system.l2.overall_mshr_misses::total            28827                       # number of overall MSHR misses
system.l2.demand_mshr_miss_latency::.switch_cpus.inst    514635500                       # number of demand (read+write) MSHR miss cycles
system.l2.demand_mshr_miss_latency::.switch_cpus.data   1542801500                       # number of demand (read+write) MSHR miss cycles
system.l2.demand_mshr_miss_latency::total   2057437000                       # number of demand (read+write) MSHR miss cycles
system.l2.overall_mshr_miss_latency::.switch_cpus.inst    514635500                       # number of overall MSHR miss cycles
system.l2.overall_mshr_miss_latency::.switch_cpus.data   1542801500                       # number of overall MSHR miss cycles
system.l2.overall_mshr_miss_latency::total   2057437000                       # number of overall MSHR miss cycles
system.l2.demand_mshr_miss_rate::.switch_cpus.inst     0.276921                       # mshr miss rate for demand accesses
system.l2.demand_mshr_miss_rate::.switch_cpus.data     0.650020                       # mshr miss rate for demand accesses
system.l2.demand_mshr_miss_rate::total       0.485998                       # mshr miss rate for demand accesses
system.l2.overall_mshr_miss_rate::.switch_cpus.inst     0.276921                       # mshr miss rate for overall accesses
system.l2.overall_mshr_miss_rate::.switch_cpus.data     0.650020                       # mshr miss rate for overall accesses
system.l2.overall_mshr_miss_rate::total      0.485998                       # mshr miss rate for overall accesses
system.l2.demand_avg_mshr_miss_latency::.switch_cpus.inst 71269.284033                       # average overall mshr miss latency
system.l2.demand_avg_mshr_miss_latency::.switch_cpus.data 71406.160326                       # average overall mshr miss latency
system.l2.demand_avg_mshr_miss_latency::total 71371.873591                       # average overall mshr miss latency
system.l2.overall_avg_mshr_miss_latency::.switch_cpus.inst 71269.284033                       # average overall mshr miss latency
system.l2.overall_avg_mshr_miss_latency::.switch_cpus.data 71406.160326                       # average overall mshr miss latency
system.l2.overall_avg_mshr_miss_latency::total 71371.873591                       # average overall mshr miss latency
system.l2.replacements                          28119                       # number of replacements
system.l2.WritebackDirty_hits::.writebacks        14281                       # number of WritebackDirty hits
system.l2.WritebackDirty_hits::total            14281                       # number of WritebackDirty hits
system.l2.WritebackDirty_accesses::.writebacks        14281                       # number of WritebackDirty accesses(hits+misses)
system.l2.WritebackDirty_accesses::total        14281                       # number of WritebackDirty accesses(hits+misses)
system.l2.WritebackClean_hits::.writebacks        25745                       # number of WritebackClean hits
system.l2.WritebackClean_hits::total            25745                       # number of WritebackClean hits
system.l2.WritebackClean_accesses::.writebacks        25745                       # number of WritebackClean accesses(hits+misses)
system.l2.WritebackClean_accesses::total        25745                       # number of WritebackClean accesses(hits+misses)
system.l2.CleanEvict_mshr_misses::.writebacks           44                       # number of CleanEvict MSHR misses
system.l2.CleanEvict_mshr_misses::total            44                       # number of CleanEvict MSHR misses
system.l2.CleanEvict_mshr_miss_rate::.writebacks          inf                       # mshr miss rate for CleanEvict accesses
[...]
system.switch_cpus.commit.committedInstType_0::SimdCmp         2532      0.02%     80.02% # Class of committed instruction
system.switch_cpus.commit.committedInstType_0::SimdCvt        72874      0.68%     80.69% # Class of committed instruction
system.switch_cpus.commit.committedInstType_0::SimdMisc       101351      0.94%     81.63% # Class of committed instruction
system.switch_cpus.commit.committedInstType_0::SimdMult            0      0.00%     81.63% # Class of committed instruction
system.switch_cpus.commit.committedInstType_0::SimdMultAcc            0      0.00%     81.63% # Class of committed instruction
system.switch_cpus.commit.committedInstType_0::SimdShift         2717      0.03%     81.66% # Class of committed instruction
system.switch_cpus.commit.committedInstType_0::SimdShiftAcc            0      0.00%     81.66% # Class of committed instruction
system.switch_cpus.commit.committedInstType_0::SimdDiv            0      0.00%     81.66% # Class of committed instruction
system.switch_cpus.commit.committedInstType_0::SimdSqrt            0      0.00%     81.66% # Class of committed instruction
system.switch_cpus.commit.committedInstType_0::SimdFloatAdd           11      0.00%     81.66% # Class of committed instruction
system.switch_cpus.commit.committedInstType_0::SimdFloatAlu            0      0.00%     81.66% # Class of committed instruction
system.switch_cpus.commit.committedInstType_0::SimdFloatCmp            0      0.00%     81.66% # Class of committed instruction
system.switch_cpus.commit.committedInstType_0::SimdFloatCvt           44      0.00%     81.66% # Class of committed instruction
system.switch_cpus.commit.committedInstType_0::SimdFloatDiv           30      0.00%     81.66% # Class of committed instruction
system.switch_cpus.commit.committedInstType_0::SimdFloatMisc            0      0.00%     81.66% # Class of committed instruction
system.switch_cpus.commit.committedInstType_0::SimdFloatMult            8      0.00%     81.66% # Class of committed instruction
system.switch_cpus.commit.committedInstType_0::SimdFloatMultAcc            0      0.00%     81.66% # Class of committed instruction
system.switch_cpus.commit.committedInstType_0::SimdFloatSqrt            0      0.00%     81.66% # Class of committed instruction
system.switch_cpus.commit.committedInstType_0::SimdReduceAdd            0      0.00%     81.66% # Class of committed instruction
system.switch_cpus.commit.committedInstType_0::SimdReduceAlu            0      0.00%     81.66% # Class of committed instruction
system.switch_cpus.commit.committedInstType_0::SimdReduceCmp            0      0.00%     81.66% # Class of committed instruction
system.switch_cpus.commit.committedInstType_0::SimdFloatReduceAdd            0      0.00%     81.66% # Class of committed instruction
system.switch_cpus.commit.committedInstType_0::SimdFloatReduceCmp            0      0.00%     81.66% # Class of committed instruction
system.switch_cpus.commit.committedInstType_0::SimdAes            0      0.00%     81.66% # Class of committed instruction
system.switch_cpus.commit.committedInstType_0::SimdAesMix            0      0.00%     81.66% # Class of committed instruction
system.switch_cpus.commit.committedInstType_0::SimdSha1Hash            0      0.00%     81.66% # Class of committed instruction
system.switch_cpus.commit.committedInstType_0::SimdSha1Hash2            0      0.00%     81.66% # Class of committed instruction
system.switch_cpus.commit.committedInstType_0::SimdSha256Hash            0      0.00%     81.66% # Class of committed instruction
system.switch_cpus.commit.committedInstType_0::SimdSha256Hash2            0      0.00%     81.66% # Class of committed instruction
system.switch_cpus.commit.committedInstType_0::SimdShaSigma2            0      0.00%     81.66% # Class of committed instruction
system.switch_cpus.commit.committedInstType_0::SimdShaSigma3            0      0.00%     81.66% # Class of committed instruction
system.switch_cpus.commit.committedInstType_0::SimdPredAlu            0      0.00%     81.66% # Class of committed instruction
system.switch_cpus.commit.committedInstType_0::MemRead      1198571     11.11%     92.77% # Class of committed instruction
system.switch_cpus.commit.committedInstType_0::MemWrite       645149      5.98%     98.75% # Class of committed instruction
system.switch_cpus.commit.committedInstType_0::FloatMemRead        92311      0.86%     99.61% # Class of committed instruction
system.switch_cpus.commit.committedInstType_0::FloatMemWrite        42292      0.39%    100.00% # Class of committed instruction
system.switch_cpus.commit.committedInstType_0::IprAccess            0      0.00%    100.00% # Class of committed instruction
system.switch_cpus.commit.committedInstType_0::InstPrefetch            0      0.00%    100.00% # Class of committed instruction
system.switch_cpus.commit.committedInstType_0::total     10786153                       # Class of committed instruction
system.switch_cpus.commit.commitEligibleSamples       501081                       # number cycles where commit BW limit reached
system.switch_cpus.decode.idleCycles          2170953                       # Number of cycles decode is idle
system.switch_cpus.decode.blockedCycles       2711302                       # Number of cycles decode is blocked
system.switch_cpus.decode.runCycles           3013514                       # Number of cycles decode is running
system.switch_cpus.decode.unblockCycles        347943                       # Number of cycles decode is unblocking
system.switch_cpus.decode.squashCycles         270370                       # Number of cycles decode is squashing
system.switch_cpus.decode.branchResolved       872605                       # Number of times decode resolved a  branch
system.switch_cpus.decode.branchMispred         22557                       # Number of times decode detected a branch misprediction
system.switch_cpus.decode.decodedInsts       22654931                       # Number of instructions handled by decode
system.switch_cpus.decode.squashedInsts        104320                       # Number of squashed instructions handled by decode
system.switch_cpus.dtb.rdAccesses             2143255                       # TLB accesses on read requests
system.switch_cpus.dtb.wrAccesses              983140                       # TLB accesses on write requests
system.switch_cpus.dtb.rdMisses                  3509                       # TLB misses on read requests
system.switch_cpus.dtb.wrMisses                  1345                       # TLB misses on write requests
system.switch_cpus.dtb.walker.power_state.pwrStateResidencyTicks::UNDEFINED   5595938000                       # Cumulative time (in ticks) in various power states
system.switch_cpus.fetch.icacheStallCycles      2460236                       # Number of cycles fetch is stalled on an Icache miss
system.switch_cpus.fetch.insts               12851020                       # Number of instructions fetch has processed
system.switch_cpus.fetch.branches             2717615                       # Number of branches that fetch encountered
system.switch_cpus.fetch.predictedBranches      1168389                       # Number of branches that fetch has predicted taken
system.switch_cpus.fetch.cycles               5618582                       # Number of cycles fetch has run and was not squashing or blocked
system.switch_cpus.fetch.squashCycles          584496                       # Number of cycles fetch has spent squashing
system.switch_cpus.fetch.miscStallCycles        15911                       # Number of cycles fetch has spent waiting on interrupts,or bad addresses, or out of MSHRs
system.switch_cpus.fetch.pendingTrapStallCycles       126954                       # Number of stall cycles due to pending traps
system.switch_cpus.fetch.pendingQuiesceStallCycles           27                       # Number of stall cycles due to pending quiesce instructions
system.switch_cpus.fetch.icacheWaitRetryStallCycles          136                       # Number of stall cycles due to full MSHR
system.switch_cpus.fetch.cacheLines           1854239                       # Number of cache lines fetched
system.switch_cpus.fetch.icacheSquashes         82953                       # Number of outstanding Icache misses that were squashed
system.switch_cpus.fetch.nisnDist::samples      8514094                       # Number of instructions fetched each cycle (Total)
system.switch_cpus.fetch.nisnDist::mean      2.874410                       # Number of instructions fetched each cycle (Total)
system.switch_cpus.fetch.nisnDist::stdev     3.490803                       # Number of instructions fetched each cycle (Total)
system.switch_cpus.fetch.nisnDist::underflows            0      0.00%      0.00% # Number of instructions fetched each cycle (Total)
system.switch_cpus.fetch.nisnDist::0          4639638     54.49%     54.49% # Number of instructions fetched each cycle (Total)
system.switch_cpus.fetch.nisnDist::1           164889      1.94%     56.43% # Number of instructions fetched each cycle (Total)
system.switch_cpus.fetch.nisnDist::2           194482      2.28%     58.71% # Number of instructions fetched each cycle (Total)
system.switch_cpus.fetch.nisnDist::3           191423      2.25%     60.96% # Number of instructions fetched each cycle (Total)
system.switch_cpus.fetch.nisnDist::4           448166      5.26%     66.23% # Number of instructions fetched each cycle (Total)
system.switch_cpus.fetch.nisnDist::5           260906      3.06%     69.29% # Number of instructions fetched each cycle (Total)
system.switch_cpus.fetch.nisnDist::6           219292      2.58%     71.87% # Number of instructions fetched each cycle (Total)
system.switch_cpus.fetch.nisnDist::7           230458      2.71%     74.57% # Number of instructions fetched each cycle (Total)
system.switch_cpus.fetch.nisnDist::8          2164840     25.43%    100.00% # Number of instructions fetched each cycle (Total)
system.switch_cpus.fetch.nisnDist::overflows            0      0.00%    100.00% # Number of instructions fetched each cycle (Total)
system.switch_cpus.fetch.nisnDist::min_value            0                       # Number of instructions fetched each cycle (Total)
system.switch_cpus.fetch.nisnDist::max_value            8                       # Number of instructions fetched each cycle (Total)
system.switch_cpus.fetch.nisnDist::total      8514094                       # Number of instructions fetched each cycle (Total)
system.switch_cpus.fetch.branchRate          0.298942                       # Number of branch fetches per cycle
system.switch_cpus.fetch.rate                1.413632                       # Number of inst fetches per cycle
system.switch_cpus.itb.rdAccesses                   0                       # TLB accesses on read requests
system.switch_cpus.itb.wrAccesses             1876622                       # TLB accesses on write requests
system.switch_cpus.itb.rdMisses                     0                       # TLB misses on read requests
system.switch_cpus.itb.wrMisses                 23933                       # TLB misses on write requests
system.switch_cpus.itb.walker.power_state.pwrStateResidencyTicks::UNDEFINED   5595938000                       # Cumulative time (in ticks) in various power states
system.switch_cpus.lsq0.forwLoads              152159                       # Number of loads that had data forwarded from stores
system.switch_cpus.lsq0.squashedLoads         1254645                       # Number of loads squashed
system.switch_cpus.lsq0.ignoredResponses         3676                       # Number of memory responses ignored because the instruction is squashed
system.switch_cpus.lsq0.memOrderViolation          788                       # Number of memory ordering violations
system.switch_cpus.lsq0.squashedStores         522604                       # Number of stores squashed
system.switch_cpus.lsq0.rescheduledLoads         3330                       # Number of loads that were rescheduled
system.switch_cpus.lsq0.blockedByCache           2826                       # Number of times an access to memory failed due to the cache being blocked
system.switch_cpus.power_state.pwrStateResidencyTicks::OFF   5595938000                       # Cumulative time (in ticks) in various power states
system.switch_cpus.rename.squashCycles         270370                       # Number of cycles rename is squashing
system.switch_cpus.rename.idleCycles          2403063                       # Number of cycles rename is idle
system.switch_cpus.rename.blockCycles         2070518                       # Number of cycles rename is blocking
system.switch_cpus.rename.serializeStallCycles        15938                       # count of cycles rename stalledfor serializing inst
system.switch_cpus.rename.runCycles           3104327                       # Number of cycles rename is running
system.switch_cpus.rename.unblockCycles        649860                       # Number of cycles rename is unblocking
system.switch_cpus.rename.renamedInsts       21564026                       # Number of instructions processed by rename
system.switch_cpus.rename.ROBFullEvents         14697                       # Number of times rename has blocked due to ROB full
system.switch_cpus.rename.IQFullEvents         254845                       # Number of times rename has blocked due to IQ full
system.switch_cpus.rename.LQFullEvents          33329                       # Number of times rename has blocked due to LQ full
system.switch_cpus.rename.SQFullEvents         323089                       # Number of times rename has blocked due to SQ full
system.switch_cpus.rename.fullRegistersEvents           27                       # Number of times there has been no free registers
system.switch_cpus.rename.renamedOperands     24106900                       # Number of destination operands rename has renamed
system.switch_cpus.rename.lookups            53093722                       # Number of register rename lookups that rename has made
system.switch_cpus.rename.intLookups         31054413                       # Number of integer rename lookups
system.switch_cpus.rename.fpLookups           1403347                       # Number of floating rename lookups
system.switch_cpus.rename.committedMaps      12664975                       # Number of HB maps that are committed
system.switch_cpus.rename.undoneMaps         11441919                       # Number of HB maps that are undone due to squashing
system.switch_cpus.rename.serializing            1061                       # count of serializing insts renamed
system.switch_cpus.rename.tempSerializing         1056                       # count of temporary serializing insts renamed
system.switch_cpus.rename.skidInsts            981313                       # count of insts added to the skid buffer
system.switch_cpus.rob.reads                 26191803                       # The number of ROB reads
system.switch_cpus.rob.writes                40190375                       # The number of ROB writes
system.switch_cpus.thread_0.numInsts          5628199                       # Number of Instructions committed
system.switch_cpus.thread_0.numOps           10786153                       # Number of Ops committed
system.switch_cpus.thread_0.numMemRefs              0                       # Number of Memory References
system.tol2bus.trans_dist::ReadResp             51533                       # Transaction distribution
system.tol2bus.trans_dist::WritebackDirty        20763                       # Transaction distribution
system.tol2bus.trans_dist::WritebackClean        25786                       # Transaction distribution
system.tol2bus.trans_dist::CleanEvict           40595                       # Transaction distribution
system.tol2bus.trans_dist::UpgradeReq              34                       # Transaction distribution
system.tol2bus.trans_dist::UpgradeResp             34                       # Transaction distribution
system.tol2bus.trans_dist::ReadExReq             7880                       # Transaction distribution
system.tol2bus.trans_dist::ReadExResp            7880                       # Transaction distribution
system.tol2bus.trans_dist::ReadCleanReq         26175                       # Transaction distribution
system.tol2bus.trans_dist::ReadSharedReq        25359                       # Transaction distribution
system.tol2bus.pkt_count_system.cpu.icache.mem_side_port::system.l2.cpu_side_port        78036                       # Packet count per connected requestor and responder (bytes)
system.tol2bus.pkt_count_system.cpu.dcache.mem_side_port::system.l2.cpu_side_port        99785                       # Packet count per connected requestor and responder (bytes)
system.tol2bus.pkt_count::total                177821                       # Packet count per connected requestor and responder (bytes)
system.tol2bus.pkt_size_system.cpu.icache.mem_side_port::system.l2.cpu_side_port      3319104                       # Cumulative packet size per connected requestor and responder (bytes)
system.tol2bus.pkt_size_system.cpu.dcache.mem_side_port::system.l2.cpu_side_port      3041280                       # Cumulative packet size per connected requestor and responder (bytes)
system.tol2bus.pkt_size::total                6360384                       # Cumulative packet size per connected requestor and responder (bytes)
system.tol2bus.snoops                           28218                       # Total snoops (count)
system.tol2bus.snoopTraffic                    421184                       # Total snoop traffic (bytes)
system.tol2bus.snoop_fanout::samples            87567                       # Request fanout histogram
system.tol2bus.snoop_fanout::mean            0.017301                       # Request fanout histogram
system.tol2bus.snoop_fanout::stdev           0.130391                       # Request fanout histogram
system.tol2bus.snoop_fanout::underflows             0      0.00%      0.00% # Request fanout histogram
system.tol2bus.snoop_fanout::0                  86052     98.27%     98.27% # Request fanout histogram
system.tol2bus.snoop_fanout::1                   1515      1.73%    100.00% # Request fanout histogram
system.tol2bus.snoop_fanout::2                      0      0.00%    100.00% # Request fanout histogram
system.tol2bus.snoop_fanout::3                      0      0.00%    100.00% # Request fanout histogram
system.tol2bus.snoop_fanout::4                      0      0.00%    100.00% # Request fanout histogram
system.tol2bus.snoop_fanout::overflows              0      0.00%    100.00% # Request fanout histogram
system.tol2bus.snoop_fanout::min_value              0                       # Request fanout histogram
system.tol2bus.snoop_fanout::max_value              1                       # Request fanout histogram
system.tol2bus.snoop_fanout::total              87567                       # Request fanout histogram
system.tol2bus.power_state.pwrStateResidencyTicks::UNDEFINED   5595938000                       # Cumulative time (in ticks) in various power states
system.tol2bus.reqLayer0.occupancy           99303500                       # Layer occupancy (ticks)
system.tol2bus.reqLayer0.utilization              2.2                       # Layer utilization (%)
system.tol2bus.respLayer0.occupancy          39266988                       # Layer occupancy (ticks)
system.tol2bus.respLayer0.utilization             0.9                       # Layer utilization (%)
system.tol2bus.respLayer1.occupancy          49880989                       # Layer occupancy (ticks)
system.tol2bus.respLayer1.utilization             1.1                       # Layer utilization (%)
system.voltage_domain.voltage                       1                       # Voltage in Volts

---------- End Simulation Statistics   ----------
