
---------- Begin Simulation Statistics ----------
final_tick                                 6506938000                       # Number of ticks from beginning of simulation (restored from checkpoints and never reset)
host_inst_rate                                 119476                       # Simulator instruction rate (inst/s)
host_mem_usage                                8608180                       # Number of bytes of host memory used
host_op_rate                                   209297                       # Simulator op (including micro ops) rate (op/s)
host_seconds                                    92.07                       # Real time elapsed on the host
host_tick_rate                               58849776                       # Simulator tick rate (ticks/s)
sim_freq                                 1000000000000                       # Frequency of simulated ticks
sim_insts                                    11000002                       # Number of instructions simulated
sim_ops                                      19269684                       # Number of ops (including micro ops) simulated
sim_seconds                                  0.005418                       # Number of seconds simulated
sim_ticks                                  5418213000                       # Number of ticks simulated
system.cpu.committedInsts                           0                       # Number of instructions committed
system.cpu.committedOps                             0                       # Number of ops (including micro ops) committed
system.cpu.idle_fraction                            0                       # Percentage of idle cycles
system.cpu.not_idle_fraction                        1                       # Percentage of non-idle cycles
system.cpu.numCycles                                0                       # number of cpu cycles simulated
system.cpu.numWorkItemsCompleted                    0                       # number of work items this cpu completed
system.cpu.numWorkItemsStarted                      0                       # number of work items this cpu started
system.cpu.num_busy_cycles                          0                       # Number of busy cycles
system.cpu.num_conditional_control_insts            0                       # number of instructions that are conditional controls
system.cpu.num_fp_alu_accesses                      0                       # Number of float alu accesses
system.cpu.num_fp_insts                             0                       # number of float instructions
system.cpu.num_fp_register_reads                    0                       # number of times the floating registers were read
system.cpu.num_fp_register_writes                   0                       # number of times the floating registers were written
system.cpu.num_func_calls                           0                       # number of times a function call or return occured
system.cpu.num_idle_cycles                          0                       # Number of idle cycles
system.cpu.num_int_alu_accesses                     0                       # Number of integer alu accesses
system.cpu.num_int_insts                            0                       # number of integer instructions
system.cpu.num_int_register_reads                   0                       # number of times the integer registers were read
system.cpu.num_int_register_writes                  0                       # number of times the integer registers were written
system.cpu.num_load_insts                           0                       # Number of load instructions
system.cpu.num_mem_refs                             0                       # number of memory refs
system.cpu.num_store_insts                          0                       # Number of store instructions
system.cpu.num_vec_alu_accesses                     0                       # Number of vector alu accesses
system.cpu.num_vec_insts                            0                       # number of vector instructions
system.cpu.num_vec_register_reads                   0                       # number of times the vector registers were read
system.cpu.num_vec_register_writes                  0                       # number of times the vector registers were written
system.cpu.op_class::No_OpClass                     0                       # Class of executed instruction
system.cpu.op_class::IntAlu                         0                       # Class of executed instruction
system.cpu.op_class::IntMult                        0                       # Class of executed instruction
system.cpu.op_class::IntDiv                         0                       # Class of executed instruction
system.cpu.op_class::FloatAdd                       0                       # Class of executed instruction
system.cpu.op_class::FloatCmp                       0                       # Class of executed instruction
system.cpu.op_class::FloatCvt                       0                       # Class of executed instruction
system.cpu.op_class::FloatMult                      0                       # Class of executed instruction
system.cpu.op_class::FloatMultAcc                   0                       # Class of executed instruction
system.cpu.op_class::FloatDiv                       0                       # Class of executed instruction
system.cpu.op_class::FloatMisc                      0                       # Class of executed instruction
system.cpu.op_class::FloatSqrt                      0                       # Class of executed instruction
system.cpu.op_class::SimdAdd                        0                       # Class of executed instruction
system.cpu.op_class::SimdAddAcc                     0                       # Class of executed instruction
system.cpu.op_class::SimdAlu                        0                       # Class of executed instruction
system.cpu.op_class::SimdCmp                        0                       # Class of executed instruction
system.cpu.op_class::SimdCvt                        0                       # Class of executed instruction
system.cpu.op_class::SimdMisc                       0                       # Class of executed instruction
system.cpu.op_class::SimdMult                       0                       # Class of executed instruction
system.cpu.op_class::SimdMultAcc                    0                       # Class of executed instruction
system.cpu.op_class::SimdShift                      0                       # Class of executed instruction
system.cpu.op_class::SimdShiftAcc                   0                       # Class of executed instruction
system.cpu.op_class::SimdDiv                        0                       # Class of executed instruction
system.cpu.op_class::SimdSqrt                       0                       # Class of executed instruction
system.cpu.op_class::SimdFloatAdd                   0                       # Class of executed instruction
system.cpu.op_class::SimdFloatAlu                   0                       # Class of executed instruction
system.cpu.op_class::SimdFloatCmp                   0                       # Class of executed instruction
system.cpu.op_class::SimdFloatCvt                   0                       # Class of executed instruction
system.cpu.op_class::SimdFloatDiv                   0                       # Class of executed instruction
system.cpu.op_class::SimdFloatMisc                  0                       # Class of executed instruction
system.cpu.op_class::SimdFloatMult                  0                       # Class of executed instruction
system.cpu.op_class::SimdFloatMultAcc               0                       # Class of executed instruction
system.cpu.op_class::SimdFloatSqrt                  0                       # Class of executed instruction
system.cpu.op_class::SimdReduceAdd                  0                       # Class of executed instruction
system.cpu.op_class::SimdReduceAlu                  0                       # Class of executed instruction
system.cpu.op_class::SimdReduceCmp                  0                       # Class of executed instruction
system.cpu.op_class::SimdFloatReduceAdd             0                       # Class of executed instruction
system.cpu.op_class::SimdFloatReduceCmp             0                       # Class of executed instruction
system.cpu.op_class::SimdAes                        0                       # Class of executed instruction
system.cpu.op_class::SimdAesMix                     0                       # Class of executed instruction
system.cpu.op_class::SimdSha1Hash                   0                       # Class of executed instruction
system.cpu.op_class::SimdSha1Hash2                  0                       # Class of executed instruction
system.cpu.op_class::SimdSha256Hash                 0                       # Class of executed instruction
system.cpu.op_class::SimdSha256Hash2                0                       # Class of executed instruction
system.cpu.op_class::SimdShaSigma2                  0                       # Class of executed instruction
system.cpu.op_class::SimdShaSigma3                  0                       # Class of executed instruction
system.cpu.op_class::SimdPredAlu                    0                       # Class of executed instruction
system.cpu.op_class::MemRead                        0                       # Class of executed instruction
system.cpu.op_class::MemWrite                       0                       # Class of executed instruction
system.cpu.op_class::FloatMemRead                   0                       # Class of executed instruction
system.cpu.op_class::FloatMemWrite                  0                       # Class of executed instruction
system.cpu.op_class::IprAccess                      0                       # Class of executed instruction
system.cpu.op_class::InstPrefetch                   0                       # Class of executed instruction
system.cpu.op_class::total                          0                       # Class of executed instruction
system.cpu.workload.numSyscalls                     0                       # Number of system calls
system.membus.snoop_filter.hit_multi_requests            0                       # Number of requests hitting in the snoop filter with multiple (>1) holders of the requested data.
system.membus.snoop_filter.hit_multi_snoops            0                       # Number of snoops hitting in the snoop filter with multiple (>1) holders of the requested data.
system.membus.snoop_filter.hit_single_requests          325                       # Number of requests hitting in the snoop filter with a single holder of the requested data.
system.membus.snoop_filter.hit_single_snoops            0                       # Number of snoops hitting in the snoop filter with a single holder of the requested data.
system.membus.snoop_filter.tot_requests          1203                       # Total number of requests made to the snoop filter.
system.membus.snoop_filter.tot_snoops               0                       # Total number of snoops made to the snoop filter.
system.switch_cpus.cc_regfile_reads          13488694                       # number of cc regfile reads
system.switch_cpus.cc_regfile_writes         11438826                       # number of cc regfile writes
system.switch_cpus.committedInsts            10000001                       # Number of Instructions Simulated
system.switch_cpus.committedOps              17415167                       # Number of Ops (including micro ops) Simulated
system.switch_cpus.cpi                       1.083642                       # CPI: Cycles Per Instruction
system.switch_cpus.cpi_total                 1.083642                       # CPI: Total CPI of All Threads
system.switch_cpus.fp_regfile_reads             43312                       # number of floating regfile reads
system.switch_cpus.fp_regfile_writes            54326                       # number of floating regfile writes
system.switch_cpus.idleCycles                   64616                       # Total number of cycles that the CPU has spent unscheduled due to idling
system.switch_cpus.iew.branchMispredicts       592344                       # Number of branch mispredicts detected at execute
system.switch_cpus.iew.exec_branches          2240792                       # Number of branches executed
system.switch_cpus.iew.exec_nop                     0                       # number of nop insts executed
system.switch_cpus.iew.exec_rate             2.321672                       # Inst execution rate
system.switch_cpus.iew.exec_refs              4943281                       # number of memory reference insts executed
system.switch_cpus.iew.exec_stores            1486225                       # Number of stores executed
system.switch_cpus.iew.exec_swp                     0                       # number of swp insts executed
system.switch_cpus.iew.iewBlockCycles         1349543                       # Number of cycles IEW is blocking
system.switch_cpus.iew.iewDispLoadInsts       4053028                       # Number of dispatched load instructions
system.switch_cpus.iew.iewDispNonSpecInsts            0                       # Number of dispatched non-speculative instructions
system.switch_cpus.iew.iewDispSquashedInsts        55733                       # Number of squashed instructions skipped by dispatch
system.switch_cpus.iew.iewDispStoreInsts      1934825                       # Number of dispatched store instructions
system.switch_cpus.iew.iewDispatchedInsts     30360385                       # Number of instructions dispatched to IQ
system.switch_cpus.iew.iewExecLoadInsts       3457056                       # Number of load instructions executed
system.switch_cpus.iew.iewExecSquashedInsts      1295270                       # Number of squashed instructions skipped in execute
system.switch_cpus.iew.iewExecutedInsts      25158625                       # Number of executed instructions
system.switch_cpus.iew.iewIQFullEvents              0                       # Number of times the IQ has become full, causing a stall
system.switch_cpus.iew.iewIdleCycles                0                       # Number of cycles IEW is idle
system.switch_cpus.iew.iewLSQFullEvents           909                       # Number of times the LSQ has become full, causing a stall
system.switch_cpus.iew.iewSquashCycles         523387                       # Number of cycles IEW is squashing
system.switch_cpus.iew.iewUnblockCycles           907                       # Number of cycles IEW is unblocking
system.switch_cpus.iew.memOrderViolationEvents         2352                       # Number of memory order violations
system.switch_cpus.iew.predictedNotTakenIncorrect       360873                       # Number of branches that were predicted not taken incorrectly
system.switch_cpus.iew.predictedTakenIncorrect       231471                       # Number of branches that were predicted taken incorrectly
system.switch_cpus.iew.wb_consumers          26531223                       # num instructions consuming a value
system.switch_cpus.iew.wb_count              24526380                       # cumulative count of insts written-back
system.switch_cpus.iew.wb_fanout             0.653854                       # average fanout of values written-back
system.switch_cpus.iew.wb_producers          17347536                       # num instructions producing a value
system.switch_cpus.iew.wb_rate               2.263327                       # insts written-back per cycle
system.switch_cpus.iew.wb_sent               24811492                       # cumulative count of insts sent to commit
system.switch_cpus.int_regfile_reads         37907419                       # number of integer regfile reads
system.switch_cpus.int_regfile_writes        21248735                       # number of integer regfile writes
system.switch_cpus.ipc                       0.922814                       # IPC: Instructions Per Cycle
system.switch_cpus.ipc_total                 0.922814                       # IPC: Total IPC of All Threads
system.switch_cpus.iq.FU_type_0::No_OpClass        68619      0.26%      0.26% # Type of FU issued
system.switch_cpus.iq.FU_type_0::IntAlu      20707910     78.28%     78.54% # Type of FU issued
system.switch_cpus.iq.FU_type_0::IntMult       340344      1.29%     79.83% # Type of FU issued
system.switch_cpus.iq.FU_type_0::IntDiv          2429      0.01%     79.83% # Type of FU issued
system.switch_cpus.iq.FU_type_0::FloatAdd          614      0.00%     79.84% # Type of FU issued
system.switch_cpus.iq.FU_type_0::FloatCmp            0      0.00%     79.84% # Type of FU issued
system.switch_cpus.iq.FU_type_0::FloatCvt            0      0.00%     79.84% # Type of FU issued
system.switch_cpus.iq.FU_type_0::FloatMult            0      0.00%     79.84% # Type of FU issued
system.switch_cpus.iq.FU_type_0::FloatMultAcc            0      0.00%     79.84% # Type of FU issued
system.switch_cpus.iq.FU_type_0::FloatDiv            0      0.00%     79.84% # Type of FU issued
system.switch_cpus.iq.FU_type_0::FloatMisc            0      0.00%     79.84% # Type of FU issued
system.switch_cpus.iq.FU_type_0::FloatSqrt            0      0.00%     79.84% # Type of FU issued
system.switch_cpus.iq.FU_type_0::SimdAdd            0      0.00%     79.84% # Type of FU issued
system.switch_cpus.iq.FU_type_0::SimdAddAcc            0      0.00%     79.84% # Type of FU issued
system.switch_cpus.iq.FU_type_0::SimdAlu          128      0.00%     79.84% # Type of FU issued
system.switch_cpus.iq.FU_type_0::SimdCmp            0      0.00%     79.84% # Type of FU issued
system.switch_cpus.iq.FU_type_0::SimdCvt            0      0.00%     79.84% # Type of FU issued
system.switch_cpus.iq.FU_type_0::SimdMisc         2798      0.01%     79.85% # Type of FU issued
system.switch_cpus.iq.FU_type_0::SimdMult            0      0.00%     79.85% # Type of FU issued
system.switch_cpus.iq.FU_type_0::SimdMultAcc            0      0.00%     79.85% # Type of FU issued
system.switch_cpus.iq.FU_type_0::SimdShift            0      0.00%     79.85% # Type of FU issued
system.switch_cpus.iq.FU_type_0::SimdShiftAcc            0      0.00%     79.85% # Type of FU issued
system.switch_cpus.iq.FU_type_0::SimdDiv            0      0.00%     79.85% # Type of FU issued
system.switch_cpus.iq.FU_type_0::SimdSqrt            0      0.00%     79.85% # Type of FU issued
system.switch_cpus.iq.FU_type_0::SimdFloatAdd            0      0.00%     79.85% # Type of FU issued
system.switch_cpus.iq.FU_type_0::SimdFloatAlu            0      0.00%     79.85% # Type of FU issued
system.switch_cpus.iq.FU_type_0::SimdFloatCmp            0      0.00%     79.85% # Type of FU issued
system.switch_cpus.iq.FU_type_0::SimdFloatCvt            0      0.00%     79.85% # Type of FU issued
system.switch_cpus.iq.FU_type_0::SimdFloatDiv            0      0.00%     79.85% # Type of FU issued
system.switch_cpus.iq.FU_type_0::SimdFloatMisc            0      0.00%     79.85% # Type of FU issued
system.switch_cpus.iq.FU_type_0::SimdFloatMult            0      0.00%     79.85% # Type of FU issued
system.switch_cpus.iq.FU_type_0::SimdFloatMultAcc            0      0.00%     79.85% # Type of FU issued
system.switch_cpus.iq.FU_type_0::SimdFloatSqrt            0      0.00%     79.85% # Type of FU issued
system.switch_cpus.iq.FU_type_0::SimdReduceAdd            0      0.00%     79.85% # Type of FU issued
system.switch_cpus.iq.FU_type_0::SimdReduceAlu            0      0.00%     79.85% # Type of FU issued
system.switch_cpus.iq.FU_type_0::SimdReduceCmp            0      0.00%     79.85% # Type of FU issued
system.switch_cpus.iq.FU_type_0::SimdFloatReduceAdd            0      0.00%     79.85% # Type of FU issued
system.switch_cpus.iq.FU_type_0::SimdFloatReduceCmp            0      0.00%     79.85% # Type of FU issued
system.switch_cpus.iq.FU_type_0::SimdAes            0      0.00%     79.85% # Type of FU issued
system.switch_cpus.iq.FU_type_0::SimdAesMix            0      0.00%     79.85% # Type of FU issued
system.switch_cpus.iq.FU_type_0::SimdSha1Hash            0      0.00%     79.85% # Type of FU issued
system.switch_cpus.iq.FU_type_0::SimdSha1Hash2            0      0.00%     79.85% # Type of FU issued
system.switch_cpus.iq.FU_type_0::SimdSha256Hash            0      0.00%     79.85% # Type of FU issued
system.switch_cpus.iq.FU_type_0::SimdSha256Hash2            0      0.00%     79.85% # Type of FU issued
system.switch_cpus.iq.FU_type_0::SimdShaSigma2            0      0.00%     79.85% # Type of FU issued
system.switch_cpus.iq.FU_type_0::SimdShaSigma3            0      0.00%     79.85% # Type of FU issued
system.switch_cpus.iq.FU_type_0::SimdPredAlu            0      0.00%     79.85% # Type of FU issued
system.switch_cpus.iq.FU_type_0::MemRead      3711729     14.03%     93.88% # Type of FU issued
system.switch_cpus.iq.FU_type_0::MemWrite      1526611      5.77%     99.65% # Type of FU issued
system.switch_cpus.iq.FU_type_0::FloatMemRead        55563      0.21%     99.86% # Type of FU issued
system.switch_cpus.iq.FU_type_0::FloatMemWrite        37150      0.14%    100.00% # Type of FU issued
system.switch_cpus.iq.FU_type_0::IprAccess            0      0.00%    100.00% # Type of FU issued
system.switch_cpus.iq.FU_type_0::InstPrefetch            0      0.00%    100.00% # Type of FU issued
system.switch_cpus.iq.FU_type_0::total       26453895                       # Type of FU issued
system.switch_cpus.iq.fp_alu_accesses          104978                       # Number of floating point alu accesses
system.switch_cpus.iq.fp_inst_queue_reads       201995                       # Number of floating instruction queue reads
system.switch_cpus.iq.fp_inst_queue_wakeup_accesses        89420                       # Number of floating instruction queue wakeup accesses
system.switch_cpus.iq.fp_inst_queue_writes       124134                       # Number of floating instruction queue writes
system.switch_cpus.iq.fu_busy_cnt              561821                       # FU busy when requested
system.switch_cpus.iq.fu_busy_rate           0.021238                       # FU busy rate (busy events/executed inst)
system.switch_cpus.iq.fu_full::No_OpClass            0      0.00%      0.00% # attempts to use FU when none available
system.switch_cpus.iq.fu_full::IntAlu          460359     81.94%     81.94% # attempts to use FU when none available
system.switch_cpus.iq.fu_full::IntMult              0      0.00%     81.94% # attempts to use FU when none available
system.switch_cpus.iq.fu_full::IntDiv               0      0.00%     81.94% # attempts to use FU when none available
system.switch_cpus.iq.fu_full::FloatAdd             0      0.00%     81.94% # attempts to use FU when none available
system.switch_cpus.iq.fu_full::FloatCmp             0      0.00%     81.94% # attempts to use FU when none available
system.switch_cpus.iq.fu_full::FloatCvt             0      0.00%     81.94% # attempts to use FU when none available
system.switch_cpus.iq.fu_full::FloatMult            0      0.00%     81.94% # attempts to use FU when none available
system.switch_cpus.iq.fu_full::FloatMultAcc            0      0.00%     81.94% # attempts to use FU when none available
system.switch_cpus.iq.fu_full::FloatDiv             0      0.00%     81.94% # attempts to use FU when none available
system.switch_cpus.iq.fu_full::FloatMisc            0      0.00%     81.94% # attempts to use FU when none available
system.switch_cpus.iq.fu_full::FloatSqrt            0      0.00%     81.94% # attempts to use FU when none available
system.switch_cpus.iq.fu_full::SimdAdd              0      0.00%     81.94% # attempts to use FU when none available
system.switch_cpus.iq.fu_full::SimdAddAcc            0      0.00%     81.94% # attempts to use FU when none available
system.switch_cpus.iq.fu_full::SimdAlu              0      0.00%     81.94% # attempts to use FU when none available
system.switch_cpus.iq.fu_full::SimdCmp              0      0.00%     81.94% # attempts to use FU when none available
system.switch_cpus.iq.fu_full::SimdCvt              0      0.00%     81.94% # attempts to use FU when none available
system.switch_cpus.iq.fu_full::SimdMisc             0      0.00%     81.94% # attempts to use FU when none available
system.switch_cpus.iq.fu_full::SimdMult             0      0.00%     81.94% # attempts to use FU when none available
system.switch_cpus.iq.fu_full::SimdMultAcc            0      0.00%     81.94% # attempts to use FU when none available
system.switch_cpus.iq.fu_full::SimdShift            0      0.00%     81.94% # attempts to use FU when none available
system.switch_cpus.iq.fu_full::SimdShiftAcc            0      0.00%     81.94% # attempts to use FU when none available
system.switch_cpus.iq.fu_full::SimdDiv              0      0.00%     81.94% # attempts to use FU when none available
system.switch_cpus.iq.fu_full::SimdSqrt             0      0.00%     81.94% # attempts to use FU when none available
system.switch_cpus.iq.fu_full::SimdFloatAdd            0      0.00%     81.94% # attempts to use FU when none available
system.switch_cpus.iq.fu_full::SimdFloatAlu            0      0.00%     81.94% # attempts to use FU when none available
system.switch_cpus.iq.fu_full::SimdFloatCmp            0      0.00%     81.94% # attempts to use FU when none available
system.switch_cpus.iq.fu_full::SimdFloatCvt            0      0.00%     81.94% # attempts to use FU when none available
system.switch_cpus.iq.fu_full::SimdFloatDiv            0      0.00%     81.94% # attempts to use FU when none available
system.switch_cpus.iq.fu_full::SimdFloatMisc            0      0.00%     81.94% # attempts to use FU when none available
system.switch_cpus.iq.fu_full::SimdFloatMult            0      0.00%     81.94% # attempts to use FU when none available
system.switch_cpus.iq.fu_full::SimdFloatMultAcc            0      0.00%     81.94% # attempts to use FU when none available
system.switch_cpus.iq.fu_full::SimdFloatSqrt            0      0.00%     81.94% # attempts to use FU when none available
system.switch_cpus.iq.fu_full::SimdReduceAdd            0      0.00%     81.94% # attempts to use FU when none available
system.switch_cpus.iq.fu_full::SimdReduceAlu            0      0.00%     81.94% # attempts to use FU when none available
system.switch_cpus.iq.fu_full::SimdReduceCmp            0      0.00%     81.94% # attempts to use FU when none available
system.switch_cpus.iq.fu_full::SimdFloatReduceAdd            0      0.00%     81.94% # attempts to use FU when none available
system.switch_cpus.iq.fu_full::SimdFloatReduceCmp            0      0.00%     81.94% # attempts to use FU when none available
system.switch_cpus.iq.fu_full::SimdAes              0      0.00%     81.94% # attempts to use FU when none available
system.switch_cpus.iq.fu_full::SimdAesMix            0      0.00%     81.94% # attempts to use FU when none available
system.switch_cpus.iq.fu_full::SimdSha1Hash            0      0.00%     81.94% # attempts to use FU when none available
system.switch_cpus.iq.fu_full::SimdSha1Hash2            0      0.00%     81.94% # attempts to use FU when none available
system.switch_cpus.iq.fu_full::SimdSha256Hash            0      0.00%     81.94% # attempts to use FU when none available
system.switch_cpus.iq.fu_full::SimdSha256Hash2            0      0.00%     81.94% # attempts to use FU when none available
system.switch_cpus.iq.fu_full::SimdShaSigma2            0      0.00%     81.94% # attempts to use FU when none available
system.switch_cpus.iq.fu_full::SimdShaSigma3            0      0.00%     81.94% # attempts to use FU when none available
system.switch_cpus.iq.fu_full::SimdPredAlu            0      0.00%     81.94% # attempts to use FU when none available
system.switch_cpus.iq.fu_full::MemRead          64739     11.52%     93.46% # attempts to use FU when none available
system.switch_cpus.iq.fu_full::MemWrite         28420      5.06%     98.52% # attempts to use FU when none available
system.switch_cpus.iq.fu_full::FloatMemRead         5168      0.92%     99.44% # attempts to use FU when none available
system.switch_cpus.iq.fu_full::FloatMemWrite         3135      0.56%    100.00% # attempts to use FU when none available
system.switch_cpus.iq.fu_full::IprAccess            0      0.00%    100.00% # attempts to use FU when none available
system.switch_cpus.iq.fu_full::InstPrefetch            0      0.00%    100.00% # attempts to use FU when none available
system.switch_cpus.iq.int_alu_accesses       26842119                       # Number of integer alu accesses
system.switch_cpus.iq.int_inst_queue_reads     64176909                       # Number of integer instruction queue reads
system.switch_cpus.iq.int_inst_queue_wakeup_accesses     24436960                       # Number of integer instruction queue wakeup accesses
system.switch_cpus.iq.int_inst_queue_writes     43183500                       # Number of integer instruction queue writes
system.switch_cpus.iq.iqInstsAdded           30360385                       # Number of instructions added to the IQ (excludes non-spec)
system.switch_cpus.iq.iqInstsIssued          26453895                       # Number of instructions issued
system.switch_cpus.iq.iqSquashedInstsExamined     12945213                       # Number of squashed instructions iterated over during squash; mainly for profiling
system.switch_cpus.iq.iqSquashedInstsIssued       137483                       # Number of squashed instructions issued
system.switch_cpus.iq.iqSquashedOperandsExamined     17161262                       # Number of squashed operands that are examined and possibly removed from graph
system.switch_cpus.iq.issued_per_cycle::samples     10771810                       # Number of insts issued each cycle
system.switch_cpus.iq.issued_per_cycle::mean     2.455845                       # Number of insts issued each cycle
system.switch_cpus.iq.issued_per_cycle::stdev     2.591230                       # Number of insts issued each cycle
system.switch_cpus.iq.issued_per_cycle::underflows            0      0.00%      0.00% # Number of insts issued each cycle
system.switch_cpus.iq.issued_per_cycle::0      4440344     41.22%     41.22% # Number of insts issued each cycle
system.switch_cpus.iq.issued_per_cycle::1       837226      7.77%     48.99% # Number of insts issued each cycle
system.switch_cpus.iq.issued_per_cycle::2       806197      7.48%     56.48% # Number of insts issued each cycle
system.switch_cpus.iq.issued_per_cycle::3       867113      8.05%     64.53% # Number of insts issued each cycle
system.switch_cpus.iq.issued_per_cycle::4       833053      7.73%     72.26% # Number of insts issued each cycle
system.switch_cpus.iq.issued_per_cycle::5      1044163      9.69%     81.96% # Number of insts issued each cycle
system.switch_cpus.iq.issued_per_cycle::6      1047042      9.72%     91.68% # Number of insts issued each cycle
system.switch_cpus.iq.issued_per_cycle::7       605719      5.62%     97.30% # Number of insts issued each cycle
system.switch_cpus.iq.issued_per_cycle::8       290953      2.70%    100.00% # Number of insts issued each cycle
system.switch_cpus.iq.issued_per_cycle::overflows            0      0.00%    100.00% # Number of insts issued each cycle
system.switch_cpus.iq.issued_per_cycle::min_value            0                       # Number of insts issued each cycle
system.switch_cpus.iq.issued_per_cycle::max_value            8                       # Number of insts issued each cycle
system.switch_cpus.iq.issued_per_cycle::total     10771810                       # Number of insts issued each cycle
system.switch_cpus.iq.rate                   2.441201                       # Inst issue rate
system.switch_cpus.iq.vec_alu_accesses              0                       # Number of vector alu accesses
system.switch_cpus.iq.vec_inst_queue_reads            0                       # Number of vector instruction queue reads
system.switch_cpus.iq.vec_inst_queue_wakeup_accesses            0                       # Number of vector instruction queue wakeup accesses
system.switch_cpus.iq.vec_inst_queue_writes            0                       # Number of vector instruction queue writes
system.switch_cpus.memDep0.conflictingLoads       164520                       # Number of conflicting loads.
system.switch_cpus.memDep0.conflictingStores        68653                       # Number of conflicting stores.
system.switch_cpus.memDep0.insertedLoads      4053028                       # Number of loads inserted to the mem dependence unit.
system.switch_cpus.memDep0.insertedStores      1934825                       # Number of stores inserted to the mem dependence unit.
system.switch_cpus.misc_regfile_reads        10045942                       # number of misc regfile reads
system.switch_cpus.numCycles                 10836426                       # number of cpu cycles simulated
system.switch_cpus.numWorkItemsCompleted            0                       # number of work items this cpu completed
system.switch_cpus.numWorkItemsStarted              0                       # number of work items this cpu started
system.switch_cpus.timesIdled                    1397                       # Number of times that the entire CPU went into an idle state and unscheduled itself
system.tol2bus.snoop_filter.hit_multi_requests            1                       # Number of requests hitting in the snoop filter with multiple (>1) holders of the requested data.
system.tol2bus.snoop_filter.hit_multi_snoops            0                       # Number of snoops hitting in the snoop filter with multiple (>1) holders of the requested data.
system.tol2bus.snoop_filter.hit_single_requests         5055                       # Number of requests hitting in the snoop filter with a single holder of the requested data.
system.tol2bus.snoop_filter.hit_single_snoops            4                       # Number of snoops hitting in the snoop filter with a single holder of the requested data.
system.tol2bus.snoop_filter.tot_requests        10129                       # Total number of requests made to the snoop filter.
system.tol2bus.snoop_filter.tot_snoops              4                       # Total number of snoops made to the snoop filter.
system.clk_domain.clock                          1000                       # Clock period in ticks
system.cpu.branchPred.lookups                       0                       # Number of BP lookups
system.cpu.branchPred.condPredicted                 0                       # Number of conditional branches predicted
system.cpu.branchPred.condIncorrect                 0                       # Number of conditional branches incorrect
system.cpu.branchPred.BTBLookups                    0                       # Number of BTB lookups
system.cpu.branchPred.BTBHits                       0                       # Number of BTB hits
system.cpu.branchPred.BTBHitPct                   nan                       # BTB Hit Percentage
system.cpu.branchPred.RASUsed                       0                       # Number of times the RAS was used to get a target.
system.cpu.branchPred.RASIncorrect                  0                       # Number of incorrect RAS predictions.
system.cpu.branchPred.indirectLookups               0                       # Number of indirect predictor lookups.
system.cpu.branchPred.indirectHits                  0                       # Number of indirect target hits.
system.cpu.branchPred.indirectMisses                0                       # Number of indirect misses.
system.cpu.branchPred.indirectMispredicted            0                       # Number of mispredicted indirect branches.
system.cpu.dcache.demand_hits::.switch_cpus.data      4359643                       # number of demand (read+write) hits
system.cpu.dcache.demand_hits::total          4359643                       # number of demand (read+write) hits
system.cpu.dcache.overall_hits::.switch_cpus.data      4359643                       # number of overall hits
system.cpu.dcache.overall_hits::total         4359643                       # number of overall hits
system.cpu.dcache.demand_misses::.switch_cpus.data          141                       # number of demand (read+write) misses
system.cpu.dcache.demand_misses::total            141                       # number of demand (read+write) misses
system.cpu.dcache.overall_misses::.switch_cpus.data          141                       # number of overall misses
system.cpu.dcache.overall_misses::total           141                       # number of overall misses
system.cpu.dcache.demand_miss_latency::.switch_cpus.data      7524000                       # number of demand (read+write) miss cycles
system.cpu.dcache.demand_miss_latency::total      7524000                       # number of demand (read+write) miss cycles
system.cpu.dcache.overall_miss_latency::.switch_cpus.data      7524000                       # number of overall miss cycles
system.cpu.dcache.overall_miss_latency::total      7524000                       # number of overall miss cycles
system.cpu.dcache.demand_accesses::.switch_cpus.data      4359784                       # number of demand (read+write) accesses
system.cpu.dcache.demand_accesses::total      4359784                       # number of demand (read+write) accesses
system.cpu.dcache.overall_accesses::.switch_cpus.data      4359784                       # number of overall (read+write) accesses
system.cpu.dcache.overall_accesses::total      4359784                       # number of overall (read+write) accesses
system.cpu.dcache.demand_miss_rate::.switch_cpus.data     0.000032                       # miss rate for demand accesses
system.cpu.dcache.demand_miss_rate::total     0.000032                       # miss rate for demand accesses
system.cpu.dcache.overall_miss_rate::.switch_cpus.data     0.000032                       # miss rate for overall accesses
system.cpu.dcache.overall_miss_rate::total     0.000032                       # miss rate for overall accesses
system.cpu.dcache.demand_avg_miss_latency::.switch_cpus.data 53361.702128                       # average overall miss latency
system.cpu.dcache.demand_avg_miss_latency::total 53361.702128                       # average overall miss latency
system.cpu.dcache.overall_avg_miss_latency::.switch_cpus.data 53361.702128                       # average overall miss latency
system.cpu.dcache.overall_avg_miss_latency::total 53361.702128                       # average overall miss latency
system.cpu.dcache.blocked_cycles::no_mshrs            0                       # number of cycles access was blocked
system.cpu.dcache.blocked_cycles::no_targets            0                       # number of cycles access was blocked
system.cpu.dcache.blocked::no_mshrs                 0                       # number of cycles access was blocked
system.cpu.dcache.blocked::no_targets               0                       # number of cycles access was blocked
system.cpu.dcache.avg_blocked_cycles::no_mshrs          nan                       # average number of cycles each access was blocked
system.cpu.dcache.avg_blocked_cycles::no_targets          nan                       # average number of cycles each access was blocked
system.cpu.dcache.writebacks::.writebacks          102                       # number of writebacks
system.cpu.dcache.writebacks::total               102                       # number of writebacks
system.cpu.dcache.demand_mshr_hits::.switch_cpus.data           29                       # number of demand (read+write) MSHR hits
system.cpu.dcache.demand_mshr_hits::total           29                       # number of demand (read+write) MSHR hits
system.cpu.dcache.overall_mshr_hits::.switch_cpus.data           29                       # number of overall MSHR hits
system.cpu.dcache.overall_mshr_hits::total           29                       # number of overall MSHR hits
system.cpu.dcache.demand_mshr_misses::.switch_cpus.data          112                       # number of demand (read+write) MSHR misses
system.cpu.dcache.demand_mshr_misses::total          112                       # number of demand (read+write) MSHR misses
system.cpu.dcache.overall_mshr_misses::.switch_cpus.data          112                       # number of overall MSHR misses
system.cpu.dcache.overall_mshr_misses::total          112                       # number of overall MSHR misses
system.cpu.dcache.demand_mshr_miss_latency::.switch_cpus.data      6337500                       # number of demand (read+write) MSHR miss cycles
system.cpu.dcache.demand_mshr_miss_latency::total      6337500                       # number of demand (read+write) MSHR miss cycles
system.cpu.dcache.overall_mshr_miss_latency::.switch_cpus.data      6337500                       # number of overall MSHR miss cycles
system.cpu.dcache.overall_mshr_miss_latency::total      6337500                       # number of overall MSHR miss cycles
system.cpu.dcache.demand_mshr_miss_rate::.switch_cpus.data     0.000026                       # mshr miss rate for demand accesses
system.cpu.dcache.demand_mshr_miss_rate::total     0.000026                       # mshr miss rate for demand accesses
system.cpu.dcache.overall_mshr_miss_rate::.switch_cpus.data     0.000026                       # mshr miss rate for overall accesses
system.cpu.dcache.overall_mshr_miss_rate::total     0.000026                       # mshr miss rate for overall accesses
system.cpu.dcache.demand_avg_mshr_miss_latency::.switch_cpus.data 56584.821429                       # average overall mshr miss latency
system.cpu.dcache.demand_avg_mshr_miss_latency::total 56584.821429                       # average overall mshr miss latency
system.cpu.dcache.overall_avg_mshr_miss_latency::.switch_cpus.data 56584.821429                       # average overall mshr miss latency
system.cpu.dcache.overall_avg_mshr_miss_latency::total 56584.821429                       # average overall mshr miss latency
system.cpu.dcache.replacements                    112                       # number of replacements
system.cpu.dcache.ReadReq_hits::.switch_cpus.data      3297915                       # number of ReadReq hits
system.cpu.dcache.ReadReq_hits::total         3297915                       # number of ReadReq hits
system.cpu.dcache.ReadReq_misses::.switch_cpus.data           57                       # number of ReadReq misses
system.cpu.dcache.ReadReq_misses::total            57                       # number of ReadReq misses
system.cpu.dcache.ReadReq_miss_latency::.switch_cpus.data      1824500                       # number of ReadReq miss cycles
system.cpu.dcache.ReadReq_miss_latency::total      1824500                       # number of ReadReq miss cycles
system.cpu.dcache.ReadReq_accesses::.switch_cpus.data      3297972                       # number of ReadReq accesses(hits+misses)
system.cpu.dcache.ReadReq_accesses::total      3297972                       # number of ReadReq accesses(hits+misses)
system.cpu.dcache.ReadReq_miss_rate::.switch_cpus.data     0.000017                       # miss rate for ReadReq accesses
system.cpu.dcache.ReadReq_miss_rate::total     0.000017                       # miss rate for ReadReq accesses
system.cpu.dcache.ReadReq_avg_miss_latency::.switch_cpus.data 32008.771930                       # average ReadReq miss latency
system.cpu.dcache.ReadReq_avg_miss_latency::total 32008.771930                       # average ReadReq miss latency
system.cpu.dcache.ReadReq_mshr_hits::.switch_cpus.data           28                       # number of ReadReq MSHR hits
system.cpu.dcache.ReadReq_mshr_hits::total           28                       # number of ReadReq MSHR hits
system.cpu.dcache.ReadReq_mshr_misses::.switch_cpus.data           29                       # number of ReadReq MSHR misses
system.cpu.dcache.ReadReq_mshr_misses::total           29                       # number of ReadReq MSHR misses
system.cpu.dcache.ReadReq_mshr_miss_latency::.switch_cpus.data       733000                       # number of ReadReq MSHR miss cycles
system.cpu.dcache.ReadReq_mshr_miss_latency::total       733000                       # number of ReadReq MSHR miss cycles
system.cpu.dcache.ReadReq_mshr_miss_rate::.switch_cpus.data     0.000009                       # mshr miss rate for ReadReq accesses
system.cpu.dcache.ReadReq_mshr_miss_rate::total     0.000009                       # mshr miss rate for ReadReq accesses
system.cpu.dcache.ReadReq_avg_mshr_miss_latency::.switch_cpus.data 25275.862069                       # average ReadReq mshr miss latency
system.cpu.dcache.ReadReq_avg_mshr_miss_latency::total 25275.862069                       # average ReadReq mshr miss latency
system.cpu.dcache.WriteReq_hits::.switch_cpus.data      1061728                       # number of WriteReq hits
system.cpu.dcache.WriteReq_hits::total        1061728                       # number of WriteReq hits
system.cpu.dcache.WriteReq_misses::.switch_cpus.data           84                       # number of WriteReq misses
system.cpu.dcache.WriteReq_misses::total           84                       # number of WriteReq misses
system.cpu.dcache.WriteReq_miss_latency::.switch_cpus.data      5699500                       # number of WriteReq miss cycles
system.cpu.dcache.WriteReq_miss_latency::total      5699500                       # number of WriteReq miss cycles
system.cpu.dcache.WriteReq_accesses::.switch_cpus.data      1061812                       # number of WriteReq accesses(hits+misses)
system.cpu.dcache.WriteReq_accesses::total      1061812                       # number of WriteReq accesses(hits+misses)
system.cpu.dcache.WriteReq_miss_rate::.switch_cpus.data     0.000079                       # miss rate for WriteReq accesses
system.cpu.dcache.WriteReq_miss_rate::total     0.000079                       # miss rate for WriteReq accesses
system.cpu.dcache.WriteReq_avg_miss_latency::.switch_cpus.data 67851.190476                       # average WriteReq miss latency
system.cpu.dcache.WriteReq_avg_miss_latency::total 67851.190476                       # average WriteReq miss latency
system.cpu.dcache.WriteReq_mshr_hits::.switch_cpus.data            1                       # number of WriteReq MSHR hits
system.cpu.dcache.WriteReq_mshr_hits::total            1                       # number of WriteReq MSHR hits
system.cpu.dcache.WriteReq_mshr_misses::.switch_cpus.data           83                       # number of WriteReq MSHR misses
system.cpu.dcache.WriteReq_mshr_misses::total           83                       # number of WriteReq MSHR misses
system.cpu.dcache.WriteReq_mshr_miss_latency::.switch_cpus.data      5604500                       # number of WriteReq MSHR miss cycles
system.cpu.dcache.WriteReq_mshr_miss_latency::total      5604500                       # number of WriteReq MSHR miss cycles
system.cpu.dcache.WriteReq_mshr_miss_rate::.switch_cpus.data     0.000078                       # mshr miss rate for WriteReq accesses
system.cpu.dcache.WriteReq_mshr_miss_rate::total     0.000078                       # mshr miss rate for WriteReq accesses
system.cpu.dcache.WriteReq_avg_mshr_miss_latency::.switch_cpus.data 67524.096386                       # average WriteReq mshr miss latency
system.cpu.dcache.WriteReq_avg_mshr_miss_latency::total 67524.096386                       # average WriteReq mshr miss latency
system.cpu.dcache.power_state.pwrStateResidencyTicks::UNDEFINED   6506938000                       # Cumulative time (in ticks) in various power states
system.cpu.dcache.tags.tagsinuse                 1024                       # Cycle average of tags in use
system.cpu.dcache.tags.total_refs             4573814                       # Total number of references to valid blocks.
system.cpu.dcache.tags.sampled_refs              1136                       # Sample count of references to valid blocks.
system.cpu.dcache.tags.avg_refs           4026.244718                       # Average number of references to valid blocks.
system.cpu.dcache.tags.warmup_cycle                 0                       # Cycle when the warmup percentage was hit.
system.cpu.dcache.tags.occ_blocks::.cpu.data   947.516723                       # Average occupied blocks per requestor
system.cpu.dcache.tags.occ_blocks::.switch_cpus.data    76.483277                       # Average occupied blocks per requestor
system.cpu.dcache.tags.occ_percent::.cpu.data     0.925309                       # Average percentage of cache occupancy
system.cpu.dcache.tags.occ_percent::.switch_cpus.data     0.074691                       # Average percentage of cache occupancy
system.cpu.dcache.tags.occ_percent::total            1                       # Average percentage of cache occupancy
system.cpu.dcache.tags.occ_task_id_blocks::1024         1024                       # Occupied blocks per task id
system.cpu.dcache.tags.age_task_id_blocks_1024::1            1                       # Occupied blocks per task id
system.cpu.dcache.tags.age_task_id_blocks_1024::2            1                       # Occupied blocks per task id
system.cpu.dcache.tags.age_task_id_blocks_1024::3         1022                       # Occupied blocks per task id
system.cpu.dcache.tags.occ_task_id_percent::1024            1                       # Percentage of cache occupancy per task id
system.cpu.dcache.tags.tag_accesses           8719680                       # Number of tag accesses
system.cpu.dcache.tags.data_accesses          8719680                       # Number of data accesses
system.cpu.dcache.tags.power_state.pwrStateResidencyTicks::UNDEFINED   6506938000                       # Cumulative time (in ticks) in various power states
system.cpu.dtb.rdAccesses                           0                       # TLB accesses on read requests
system.cpu.dtb.wrAccesses                           0                       # TLB accesses on write requests
system.cpu.dtb.rdMisses                             0                       # TLB misses on read requests
system.cpu.dtb.wrMisses                             0                       # TLB misses on write requests
system.cpu.dtb.walker.power_state.pwrStateResidencyTicks::UNDEFINED   6506938000                       # Cumulative time (in ticks) in various power states
system.cpu.dtb_walker_cache.blocked_cycles::no_mshrs            0                       # number of cycles access was blocked
system.cpu.dtb_walker_cache.blocked_cycles::no_targets            0                       # number of cycles access was blocked
system.cpu.dtb_walker_cache.blocked::no_mshrs            0                       # number of cycles access was blocked
system.cpu.dtb_walker_cache.blocked::no_targets            0                       # number of cycles access was blocked
system.cpu.dtb_walker_cache.avg_blocked_cycles::no_mshrs          nan                       # average number of cycles each access was blocked
system.cpu.dtb_walker_cache.avg_blocked_cycles::no_targets          nan                       # average number of cycles each access was blocked
system.cpu.dtb_walker_cache.replacements            0                       # number of replacements
system.cpu.dtb_walker_cache.power_state.pwrStateResidencyTicks::UNDEFINED   6506938000                       # Cumulative time (in ticks) in various power states
system.cpu.dtb_walker_cache.tags.tagsinuse            0                       # Cycle average of tags in use
system.cpu.dtb_walker_cache.tags.total_refs            0                       # Total number of references to valid blocks.
system.cpu.dtb_walker_cache.tags.sampled_refs            0                       # Sample count of references to valid blocks.
system.cpu.dtb_walker_cache.tags.avg_refs          nan                       # Average number of references to valid blocks.
system.cpu.dtb_walker_cache.tags.warmup_cycle            0                       # Cycle when the warmup percentage was hit.
system.cpu.dtb_walker_cache.tags.tag_accesses            0                       # Number of tag accesses
system.cpu.dtb_walker_cache.tags.data_accesses            0                       # Number of data accesses
system.cpu.dtb_walker_cache.tags.power_state.pwrStateResidencyTicks::UNDEFINED   6506938000                       # Cumulative time (in ticks) in various power states
system.cpu.icache.demand_hits::.switch_cpus.inst      3136146                       # number of demand (read+write) hits
system.cpu.icache.demand_hits::total          3136146                       # number of demand (read+write) hits
system.cpu.icache.overall_hits::.switch_cpus.inst      3136146                       # number of overall hits
system.cpu.icache.overall_hits::total         3136146                       # number of overall hits
system.cpu.icache.demand_misses::.switch_cpus.inst         6066                       # number of demand (read+write) misses
system.cpu.icache.demand_misses::total           6066                       # number of demand (read+write) misses
system.cpu.icache.overall_misses::.switch_cpus.inst         6066                       # number of overall misses
system.cpu.icache.overall_misses::total          6066                       # number of overall misses
system.cpu.icache.demand_miss_latency::.switch_cpus.inst    142562000                       # number of demand (read+write) miss cycles
system.cpu.icache.demand_miss_latency::total    142562000                       # number of demand (read+write) miss cycles
system.cpu.icache.overall_miss_latency::.switch_cpus.inst    142562000                       # number of overall miss cycles
system.cpu.icache.overall_miss_latency::total    142562000                       # number of overall miss cycles
system.cpu.icache.demand_accesses::.switch_cpus.inst      3142212                       # number of demand (read+write) accesses
system.cpu.icache.demand_accesses::total      3142212                       # number of demand (read+write) accesses
system.cpu.icache.overall_accesses::.switch_cpus.inst      3142212                       # number of overall (read+write) accesses
system.cpu.icache.overall_accesses::total      3142212                       # number of overall (read+write) accesses
system.cpu.icache.demand_miss_rate::.switch_cpus.inst     0.001930                       # miss rate for demand accesses
system.cpu.icache.demand_miss_rate::total     0.001930                       # miss rate for demand accesses
system.cpu.icache.overall_miss_rate::.switch_cpus.inst     0.001930                       # miss rate for overall accesses
system.cpu.icache.overall_miss_rate::total     0.001930                       # miss rate for overall accesses
system.cpu.icache.demand_avg_miss_latency::.switch_cpus.inst 23501.813386                       # average overall miss latency
system.cpu.icache.demand_avg_miss_latency::total 23501.813386                       # average overall miss latency
system.cpu.icache.overall_avg_miss_latency::.switch_cpus.inst 23501.813386                       # average overall miss latency
system.cpu.icache.overall_avg_miss_latency::total 23501.813386                       # average overall miss latency
system.cpu.icache.blocked_cycles::no_mshrs          177                       # number of cycles access was blocked
system.cpu.icache.blocked_cycles::no_targets            0                       # number of cycles access was blocked
system.cpu.icache.blocked::no_mshrs                 4                       # number of cycles access was blocked
system.cpu.icache.blocked::no_targets               0                       # number of cycles access was blocked
system.cpu.icache.avg_blocked_cycles::no_mshrs    44.250000                       # average number of cycles each access was blocked
system.cpu.icache.avg_blocked_cycles::no_targets          nan                       # average number of cycles each access was blocked
system.cpu.icache.writebacks::.writebacks         4943                       # number of writebacks
system.cpu.icache.writebacks::total              4943                       # number of writebacks
system.cpu.icache.demand_mshr_hits::.switch_cpus.inst         1104                       # number of demand (read+write) MSHR hits
system.cpu.icache.demand_mshr_hits::total         1104                       # number of demand (read+write) MSHR hits
system.cpu.icache.overall_mshr_hits::.switch_cpus.inst         1104                       # number of overall MSHR hits
system.cpu.icache.overall_mshr_hits::total         1104                       # number of overall MSHR hits
system.cpu.icache.demand_mshr_misses::.switch_cpus.inst         4962                       # number of demand (read+write) MSHR misses
system.cpu.icache.demand_mshr_misses::total         4962                       # number of demand (read+write) MSHR misses
system.cpu.icache.overall_mshr_misses::.switch_cpus.inst         4962                       # number of overall MSHR misses
system.cpu.icache.overall_mshr_misses::total         4962                       # number of overall MSHR misses
system.cpu.icache.demand_mshr_miss_latency::.switch_cpus.inst    112257500                       # number of demand (read+write) MSHR miss cycles
system.cpu.icache.demand_mshr_miss_latency::total    112257500                       # number of demand (read+write) MSHR miss cycles
system.cpu.icache.overall_mshr_miss_latency::.switch_cpus.inst    112257500                       # number of overall MSHR miss cycles
system.cpu.icache.overall_mshr_miss_latency::total    112257500                       # number of overall MSHR miss cycles
system.cpu.icache.demand_mshr_miss_rate::.switch_cpus.inst     0.001579                       # mshr miss rate for demand accesses
system.cpu.icache.demand_mshr_miss_rate::total     0.001579                       # mshr miss rate for demand accesses
system.cpu.icache.overall_mshr_miss_rate::.switch_cpus.inst     0.001579                       # mshr miss rate for overall accesses
system.cpu.icache.overall_mshr_miss_rate::total     0.001579                       # mshr miss rate for overall accesses
system.cpu.icache.demand_avg_mshr_miss_latency::.switch_cpus.inst 22623.438130                       # average overall mshr miss latency
system.cpu.icache.demand_avg_mshr_miss_latency::total 22623.438130                       # average overall mshr miss latency
system.cpu.icache.overall_avg_mshr_miss_latency::.switch_cpus.inst 22623.438130                       # average overall mshr miss latency
system.cpu.icache.overall_avg_mshr_miss_latency::total 22623.438130                       # average overall mshr miss latency
system.cpu.icache.replacements                   4943                       # number of replacements
system.cpu.icache.ReadReq_hits::.switch_cpus.inst      3136146                       # number of ReadReq hits
system.cpu.icache.ReadReq_hits::total         3136146                       # number of ReadReq hits
system.cpu.icache.ReadReq_misses::.switch_cpus.inst         6066                       # number of ReadReq misses
system.cpu.icache.ReadReq_misses::total          6066                       # number of ReadReq misses
system.cpu.icache.ReadReq_miss_latency::.switch_cpus.inst    142562000                       # number of ReadReq miss cycles
system.cpu.icache.ReadReq_miss_latency::total    142562000                       # number of ReadReq miss cycles
system.cpu.icache.ReadReq_accesses::.switch_cpus.inst      3142212                       # number of ReadReq accesses(hits+misses)
system.cpu.icache.ReadReq_accesses::total      3142212                       # number of ReadReq accesses(hits+misses)
system.cpu.icache.ReadReq_miss_rate::.switch_cpus.inst     0.001930                       # miss rate for ReadReq accesses
system.cpu.icache.ReadReq_miss_rate::total     0.001930                       # miss rate for ReadReq accesses
system.cpu.icache.ReadReq_avg_miss_latency::.switch_cpus.inst 23501.813386                       # average ReadReq miss latency
system.cpu.icache.ReadReq_avg_miss_latency::total 23501.813386                       # average ReadReq miss latency
system.cpu.icache.ReadReq_mshr_hits::.switch_cpus.inst         1104                       # number of ReadReq MSHR hits
system.cpu.icache.ReadReq_mshr_hits::total         1104                       # number of ReadReq MSHR hits
system.cpu.icache.ReadReq_mshr_misses::.switch_cpus.inst         4962                       # number of ReadReq MSHR misses
system.cpu.icache.ReadReq_mshr_misses::total         4962                       # number of ReadReq MSHR misses
system.cpu.icache.ReadReq_mshr_miss_latency::.switch_cpus.inst    112257500                       # number of ReadReq MSHR miss cycles
system.cpu.icache.ReadReq_mshr_miss_latency::total    112257500                       # number of ReadReq MSHR miss cycles
system.cpu.icache.ReadReq_mshr_miss_rate::.switch_cpus.inst     0.001579                       # mshr miss rate for ReadReq accesses
system.cpu.icache.ReadReq_mshr_miss_rate::total     0.001579                       # mshr miss rate for ReadReq accesses
system.cpu.icache.ReadReq_avg_mshr_miss_latency::.switch_cpus.inst 22623.438130                       # average ReadReq mshr miss latency
system.cpu.icache.ReadReq_avg_mshr_miss_latency::total 22623.438130                       # average ReadReq mshr miss latency
system.cpu.icache.power_state.pwrStateResidencyTicks::UNDEFINED   6506938000                       # Cumulative time (in ticks) in various power states
system.cpu.icache.tags.tagsinuse          1021.579638                       # Cycle average of tags in use
system.cpu.icache.tags.total_refs             3910679                       # Total number of references to valid blocks.
system.cpu.icache.tags.sampled_refs              5967                       # Sample count of references to valid blocks.
system.cpu.icache.tags.avg_refs            655.384448                       # Average number of references to valid blocks.
system.cpu.icache.tags.warmup_cycle                 0                       # Cycle when the warmup percentage was hit.
system.cpu.icache.tags.occ_blocks::.cpu.inst   316.718081                       # Average occupied blocks per requestor
system.cpu.icache.tags.occ_blocks::.switch_cpus.inst   704.861556                       # Average occupied blocks per requestor
system.cpu.icache.tags.occ_percent::.cpu.inst     0.309295                       # Average percentage of cache occupancy
system.cpu.icache.tags.occ_percent::.switch_cpus.inst     0.688341                       # Average percentage of cache occupancy
system.cpu.icache.tags.occ_percent::total     0.997636                       # Average percentage of cache occupancy
system.cpu.icache.tags.occ_task_id_blocks::1024         1024                       # Occupied blocks per task id
system.cpu.icache.tags.age_task_id_blocks_1024::1          312                       # Occupied blocks per task id
system.cpu.icache.tags.age_task_id_blocks_1024::2          327                       # Occupied blocks per task id
system.cpu.icache.tags.age_task_id_blocks_1024::3          385                       # Occupied blocks per task id
system.cpu.icache.tags.occ_task_id_percent::1024            1                       # Percentage of cache occupancy per task id
system.cpu.icache.tags.tag_accesses           6289386                       # Number of tag accesses
system.cpu.icache.tags.data_accesses          6289386                       # Number of data accesses
system.cpu.icache.tags.power_state.pwrStateResidencyTicks::UNDEFINED   6506938000                       # Cumulative time (in ticks) in various power states
system.cpu.interrupts.clk_domain.clock           8000                       # Clock period in ticks
system.cpu.itb.rdAccesses                           0                       # TLB accesses on read requests
system.cpu.itb.wrAccesses                           0                       # TLB accesses on write requests
system.cpu.itb.rdMisses                             0                       # TLB misses on read requests
system.cpu.itb.wrMisses                             0                       # TLB misses on write requests
system.cpu.itb.walker.power_state.pwrStateResidencyTicks::UNDEFINED   6506938000                       # Cumulative time (in ticks) in various power states
system.cpu.itb_walker_cache.blocked_cycles::no_mshrs            0                       # number of cycles access was blocked
system.cpu.itb_walker_cache.blocked_cycles::no_targets            0                       # number of cycles access was blocked
system.cpu.itb_walker_cache.blocked::no_mshrs            0                       # number of cycles access was blocked
system.cpu.itb_walker_cache.blocked::no_targets            0                       # number of cycles access was blocked
system.cpu.itb_walker_cache.avg_blocked_cycles::no_mshrs          nan                       # average number of cycles each access was blocked
system.cpu.itb_walker_cache.avg_blocked_cycles::no_targets          nan                       # average number of cycles each access was blocked
system.cpu.itb_walker_cache.replacements            0                       # number of replacements
system.cpu.itb_walker_cache.power_state.pwrStateResidencyTicks::UNDEFINED   6506938000                       # Cumulative time (in ticks) in various power states
system.cpu.itb_walker_cache.tags.tagsinuse            0                       # Cycle average of tags in use
system.cpu.itb_walker_cache.tags.total_refs            0                       # Total number of references to valid blocks.
system.cpu.itb_walker_cache.tags.sampled_refs            0                       # Sample count of references to valid blocks.
system.cpu.itb_walker_cache.tags.avg_refs          nan                       # Average number of references to valid blocks.
system.cpu.itb_walker_cache.tags.warmup_cycle            0                       # Cycle when the warmup percentage was hit.
system.cpu.itb_walker_cache.tags.tag_accesses            0                       # Number of tag accesses
system.cpu.itb_walker_cache.tags.data_accesses            0                       # Number of data accesses
system.cpu.itb_walker_cache.tags.power_state.pwrStateResidencyTicks::UNDEFINED   6506938000                       # Cumulative time (in ticks) in various power states
system.cpu.power_state.pwrStateResidencyTicks::OFF   5418213000                       # Cumulative time (in ticks) in various power states
system.cpu.thread_0.numInsts                        0                       # Number of Instructions committed
system.cpu.thread_0.numOps                          0                       # Number of Ops committed
system.cpu.thread_0.numMemRefs                      0                       # Number of Memory References
system.cpu_clk_domain.clock                       500                       # Clock period in ticks
system.cpu_voltage_domain.voltage                   1                       # Voltage in Volts
system.l2.demand_hits::.switch_cpus.inst         4161                       # number of demand (read+write) hits
system.l2.demand_hits::.switch_cpus.data           35                       # number of demand (read+write) hits
system.l2.demand_hits::total                     4196                       # number of demand (read+write) hits
system.l2.overall_hits::.switch_cpus.inst         4161                       # number of overall hits
system.l2.overall_hits::.switch_cpus.data           35                       # number of overall hits
system.l2.overall_hits::total                    4196                       # number of overall hits
system.l2.demand_misses::.switch_cpus.inst          801                       # number of demand (read+write) misses
system.l2.demand_misses::.switch_cpus.data           77                       # number of demand (read+write) misses
system.l2.demand_misses::total                    878                       # number of demand (read+write) misses
system.l2.overall_misses::.switch_cpus.inst          801                       # number of overall misses
system.l2.overall_misses::.switch_cpus.data           77                       # number of overall misses
system.l2.overall_misses::total                   878                       # number of overall misses
system.l2.demand_miss_latency::.switch_cpus.inst     61025500                       # number of demand (read+write) miss cycles
system.l2.demand_miss_latency::.switch_cpus.data      5799000                       # number of demand (read+write) miss cycles
system.l2.demand_miss_latency::total         66824500                       # number of demand (read+write) miss cycles
system.l2.overall_miss_latency::.switch_cpus.inst     61025500                       # number of overall miss cycles
system.l2.overall_miss_latency::.switch_cpus.data      5799000                       # number of overall miss cycles
system.l2.overall_miss_latency::total        66824500                       # number of overall miss cycles
system.l2.demand_accesses::.switch_cpus.inst         4962                       # number of demand (read+write) accesses
system.l2.demand_accesses::.switch_cpus.data          112                       # number of demand (read+write) accesses
system.l2.demand_accesses::total                 5074                       # number of demand (read+write) accesses
system.l2.overall_accesses::.switch_cpus.inst         4962                       # number of overall (read+write) accesses
system.l2.overall_accesses::.switch_cpus.data          112                       # number of overall (read+write) accesses
system.l2.overall_accesses::total                5074                       # number of overall (read+write) accesses
system.l2.demand_miss_rate::.switch_cpus.inst     0.161427                       # miss rate for demand accesses
system.l2.demand_miss_rate::.switch_cpus.data     0.687500                       # miss rate for demand accesses
system.l2.demand_miss_rate::total            0.173039                       # miss rate for demand accesses
system.l2.overall_miss_rate::.switch_cpus.inst     0.161427                       # miss rate for overall accesses
system.l2.overall_miss_rate::.switch_cpus.data     0.687500                       # miss rate for overall accesses
system.l2.overall_miss_rate::total           0.173039                       # miss rate for overall accesses
system.l2.demand_avg_miss_latency::.switch_cpus.inst 76186.641698                       # average overall miss latency
system.l2.demand_avg_miss_latency::.switch_cpus.data 75311.688312                       # average overall miss latency
system.l2.demand_avg_miss_latency::total 76109.908884                       # average overall miss latency
system.l2.overall_avg_miss_latency::.switch_cpus.inst 76186.641698                       # average overall miss latency
system.l2.overall_avg_miss_latency::.switch_cpus.data 75311.688312                       # average overall miss latency
system.l2.overall_avg_miss_latency::total 76109.908884                       # average overall miss latency
system.l2.blocked_cycles::no_mshrs                  0                       # number of cycles access was blocked
system.l2.blocked_cycles::no_targets                0                       # number of cycles access was blocked
system.l2.blocked::no_mshrs                         0                       # number of cycles access was blocked
system.l2.blocked::no_targets                       0                       # number of cycles access was blocked
system.l2.avg_blocked_cycles::no_mshrs            nan                       # average number of cycles each access was blocked
system.l2.avg_blocked_cycles::no_targets          nan                       # average number of cycles each access was blocked
system.l2.writebacks::.writebacks                  70                       # number of writebacks
system.l2.writebacks::total                        70                       # number of writebacks
system.l2.demand_mshr_misses::.switch_cpus.inst          801                       # number of demand (read+write) MSHR misses
system.l2.demand_mshr_misses::.switch_cpus.data           77                       # number of demand (read+write) MSHR misses
system.l2.demand_mshr_misses::total               878                       # number of demand (read+write) MSHR misses
system.l2.overall_mshr_misses::.switch_cpus.inst          801                       # number of overall MSHR misses
system.l2.overall_mshr_misses::.switch_cpus.data           77                       # number of overall MSHR misses
system.l2.overall_mshr_misses::total              878                       # number of overall MSHR misses
system.l2.demand_mshr_miss_latency::.switch_cpus.inst     53015500                       # number of demand (read+write) MSHR miss cycles
system.l2.demand_mshr_miss_latency::.switch_cpus.data      5029000                       # number of demand (read+write) MSHR miss cycles
system.l2.demand_mshr_miss_latency::total     58044500                       # number of demand (read+write) MSHR miss cycles
system.l2.overall_mshr_miss_latency::.switch_cpus.inst     53015500                       # number of overall MSHR miss cycles
system.l2.overall_mshr_miss_latency::.switch_cpus.data      5029000                       # number of overall MSHR miss cycles
system.l2.overall_mshr_miss_latency::total     58044500                       # number of overall MSHR miss cycles
system.l2.demand_mshr_miss_rate::.switch_cpus.inst     0.161427                       # mshr miss rate for demand accesses
system.l2.demand_mshr_miss_rate::.switch_cpus.data     0.687500                       # mshr miss rate for demand accesses
system.l2.demand_mshr_miss_rate::total       0.173039                       # mshr miss rate for demand accesses
system.l2.overall_mshr_miss_rate::.switch_cpus.inst     0.161427                       # mshr miss rate for overall accesses
system.l2.overall_mshr_miss_rate::.switch_cpus.data     0.687500                       # mshr miss rate for overall accesses
system.l2.overall_mshr_miss_rate::total      0.173039                       # mshr miss rate for overall accesses
system.l2.demand_avg_mshr_miss_latency::.switch_cpus.inst 66186.641698                       # average overall mshr miss latency
system.l2.demand_avg_mshr_miss_latency::.switch_cpus.data 65311.688312                       # average overall mshr miss latency
system.l2.demand_avg_mshr_miss_latency::total 66109.908884                       # average overall mshr miss latency
system.l2.overall_avg_mshr_miss_latency::.switch_cpus.inst 66186.641698                       # average overall mshr miss latency
system.l2.overall_avg_mshr_miss_latency::.switch_cpus.data 65311.688312                       # average overall mshr miss latency
system.l2.overall_avg_mshr_miss_latency::total 66109.908884                       # average overall mshr miss latency
system.l2.replacements                            329                       # number of replacements
system.l2.WritebackDirty_hits::.writebacks          102                       # number of WritebackDirty hits
system.l2.WritebackDirty_hits::total              102                       # number of WritebackDirty hits
system.l2.WritebackDirty_accesses::.writebacks          102                       # number of WritebackDirty accesses(hits+misses)
system.l2.WritebackDirty_accesses::total          102                       # number of WritebackDirty accesses(hits+misses)
system.l2.WritebackClean_hits::.writebacks         4942                       # number of WritebackClean hits
system.l2.WritebackClean_hits::total             4942                       # number of WritebackClean hits
system.l2.WritebackClean_accesses::.writebacks         4942                       # number of WritebackClean accesses(hits+misses)
system.l2.WritebackClean_accesses::total         4942                       # number of WritebackClean accesses(hits+misses)
system.l2.ReadExReq_hits::.switch_cpus.data           12                       # number of ReadExReq hits
system.l2.ReadExReq_hits::total                    12                       # number of ReadExReq hits
system.l2.ReadExReq_misses::.switch_cpus.data           71                       # number of ReadExReq misses
system.l2.ReadExReq_misses::total                  71                       # number of ReadExReq misses
system.l2.ReadExReq_miss_latency::.switch_cpus.data      5352000                       # number of ReadExReq miss cycles
system.l2.ReadExReq_miss_latency::total       5352000                       # number of ReadExReq miss cycles
system.l2.ReadExReq_accesses::.switch_cpus.data           83                       # number of ReadExReq accesses(hits+misses)
system.l2.ReadExReq_accesses::total                83                       # number of ReadExReq accesses(hits+misses)
system.l2.ReadExReq_miss_rate::.switch_cpus.data     0.855422                       # miss rate for ReadExReq accesses
system.l2.ReadExReq_miss_rate::total         0.855422                       # miss rate for ReadExReq accesses
system.l2.ReadExReq_avg_miss_latency::.switch_cpus.data 75380.281690                       # average ReadExReq miss latency
system.l2.ReadExReq_avg_miss_latency::total 75380.281690                       # average ReadExReq miss latency
system.l2.ReadExReq_mshr_misses::.switch_cpus.data           71                       # number of ReadExReq MSHR misses
system.l2.ReadExReq_mshr_misses::total             71                       # number of ReadExReq MSHR misses
system.l2.ReadExReq_mshr_miss_latency::.switch_cpus.data      4642000                       # number of ReadExReq MSHR miss cycles
system.l2.ReadExReq_mshr_miss_latency::total      4642000                       # number of ReadExReq MSHR miss cycles
system.l2.ReadExReq_mshr_miss_rate::.switch_cpus.data     0.855422                       # mshr miss rate for ReadExReq accesses
system.l2.ReadExReq_mshr_miss_rate::total     0.855422                       # mshr miss rate for ReadExReq accesses
system.l2.ReadExReq_avg_mshr_miss_latency::.switch_cpus.data 65380.281690                       # average ReadExReq mshr miss latency
system.l2.ReadExReq_avg_mshr_miss_latency::total 65380.281690                       # average ReadExReq mshr miss latency
system.l2.ReadCleanReq_hits::.switch_cpus.inst         4161                       # number of ReadCleanReq hits
system.l2.ReadCleanReq_hits::total               4161                       # number of ReadCleanReq hits
system.l2.ReadCleanReq_misses::.switch_cpus.inst          801                       # number of ReadCleanReq misses
system.l2.ReadCleanReq_misses::total              801                       # number of ReadCleanReq misses
system.l2.ReadCleanReq_miss_latency::.switch_cpus.inst     61025500                       # number of ReadCleanReq miss cycles
system.l2.ReadCleanReq_miss_latency::total     61025500                       # number of ReadCleanReq miss cycles
system.l2.ReadCleanReq_accesses::.switch_cpus.inst         4962                       # number of ReadCleanReq accesses(hits+misses)
system.l2.ReadCleanReq_accesses::total           4962                       # number of ReadCleanReq accesses(hits+misses)
system.l2.ReadCleanReq_miss_rate::.switch_cpus.inst     0.161427                       # miss rate for ReadCleanReq accesses
system.l2.ReadCleanReq_miss_rate::total      0.161427                       # miss rate for ReadCleanReq accesses
system.l2.ReadCleanReq_avg_miss_latency::.switch_cpus.inst 76186.641698                       # average ReadCleanReq miss latency
[...]
system.switch_cpus.commit.committedInstType_0::FloatMisc            0      0.00%     81.93% # Class of committed instruction
system.switch_cpus.commit.committedInstType_0::FloatSqrt            0      0.00%     81.93% # Class of committed instruction
system.switch_cpus.commit.committedInstType_0::SimdAdd            0      0.00%     81.93% # Class of committed instruction
system.switch_cpus.commit.committedInstType_0::SimdAddAcc            0      0.00%     81.93% # Class of committed instruction
system.switch_cpus.commit.committedInstType_0::SimdAlu           68      0.00%     81.93% # Class of committed instruction
system.switch_cpus.commit.committedInstType_0::SimdCmp            0      0.00%     81.93% # Class of committed instruction
system.switch_cpus.commit.committedInstType_0::SimdCvt            0      0.00%     81.93% # Class of committed instruction
system.switch_cpus.commit.committedInstType_0::SimdMisc         2798      0.02%     81.95% # Class of committed instruction
system.switch_cpus.commit.committedInstType_0::SimdMult            0      0.00%     81.95% # Class of committed instruction
system.switch_cpus.commit.committedInstType_0::SimdMultAcc            0      0.00%     81.95% # Class of committed instruction
system.switch_cpus.commit.committedInstType_0::SimdShift            0      0.00%     81.95% # Class of committed instruction
system.switch_cpus.commit.committedInstType_0::SimdShiftAcc            0      0.00%     81.95% # Class of committed instruction
system.switch_cpus.commit.committedInstType_0::SimdDiv            0      0.00%     81.95% # Class of committed instruction
system.switch_cpus.commit.committedInstType_0::SimdSqrt            0      0.00%     81.95% # Class of committed instruction
system.switch_cpus.commit.committedInstType_0::SimdFloatAdd            0      0.00%     81.95% # Class of committed instruction
system.switch_cpus.commit.committedInstType_0::SimdFloatAlu            0      0.00%     81.95% # Class of committed instruction
system.switch_cpus.commit.committedInstType_0::SimdFloatCmp            0      0.00%     81.95% # Class of committed instruction
system.switch_cpus.commit.committedInstType_0::SimdFloatCvt            0      0.00%     81.95% # Class of committed instruction
system.switch_cpus.commit.committedInstType_0::SimdFloatDiv            0      0.00%     81.95% # Class of committed instruction
system.switch_cpus.commit.committedInstType_0::SimdFloatMisc            0      0.00%     81.95% # Class of committed instruction
system.switch_cpus.commit.committedInstType_0::SimdFloatMult            0      0.00%     81.95% # Class of committed instruction
system.switch_cpus.commit.committedInstType_0::SimdFloatMultAcc            0      0.00%     81.95% # Class of committed instruction
system.switch_cpus.commit.committedInstType_0::SimdFloatSqrt            0      0.00%     81.95% # Class of committed instruction
system.switch_cpus.commit.committedInstType_0::SimdReduceAdd            0      0.00%     81.95% # Class of committed instruction
system.switch_cpus.commit.committedInstType_0::SimdReduceAlu            0      0.00%     81.95% # Class of committed instruction
system.switch_cpus.commit.committedInstType_0::SimdReduceCmp            0      0.00%     81.95% # Class of committed instruction
system.switch_cpus.commit.committedInstType_0::SimdFloatReduceAdd            0      0.00%     81.95% # Class of committed instruction
system.switch_cpus.commit.committedInstType_0::SimdFloatReduceCmp            0      0.00%     81.95% # Class of committed instruction
system.switch_cpus.commit.committedInstType_0::SimdAes            0      0.00%     81.95% # Class of committed instruction
system.switch_cpus.commit.committedInstType_0::SimdAesMix            0      0.00%     81.95% # Class of committed instruction
system.switch_cpus.commit.committedInstType_0::SimdSha1Hash            0      0.00%     81.95% # Class of committed instruction
system.switch_cpus.commit.committedInstType_0::SimdSha1Hash2            0      0.00%     81.95% # Class of committed instruction
system.switch_cpus.commit.committedInstType_0::SimdSha256Hash            0      0.00%     81.95% # Class of committed instruction
system.switch_cpus.commit.committedInstType_0::SimdSha256Hash2            0      0.00%     81.95% # Class of committed instruction
system.switch_cpus.commit.committedInstType_0::SimdShaSigma2            0      0.00%     81.95% # Class of committed instruction
system.switch_cpus.commit.committedInstType_0::SimdShaSigma3            0      0.00%     81.95% # Class of committed instruction
system.switch_cpus.commit.committedInstType_0::SimdPredAlu            0      0.00%     81.95% # Class of committed instruction
system.switch_cpus.commit.committedInstType_0::MemRead      2048071     11.76%     93.71% # Class of committed instruction
system.switch_cpus.commit.committedInstType_0::MemWrite      1025864      5.89%     99.60% # Class of committed instruction
system.switch_cpus.commit.committedInstType_0::FloatMemRead        33924      0.19%     99.79% # Class of committed instruction
system.switch_cpus.commit.committedInstType_0::FloatMemWrite        35740      0.21%    100.00% # Class of committed instruction
system.switch_cpus.commit.committedInstType_0::IprAccess            0      0.00%    100.00% # Class of committed instruction
system.switch_cpus.commit.committedInstType_0::InstPrefetch            0      0.00%    100.00% # Class of committed instruction
system.switch_cpus.commit.committedInstType_0::total     17415167                       # Class of committed instruction
system.switch_cpus.commit.commitEligibleSamples       984808                       # number cycles where commit BW limit reached
system.switch_cpus.decode.idleCycles          3161439                       # Number of cycles decode is idle
system.switch_cpus.decode.blockedCycles       1475326                       # Number of cycles decode is blocked
system.switch_cpus.decode.runCycles           5147971                       # Number of cycles decode is running
system.switch_cpus.decode.unblockCycles        463684                       # Number of cycles decode is unblocking
system.switch_cpus.decode.squashCycles         523387                       # Number of cycles decode is squashing
system.switch_cpus.decode.branchResolved      2021989                       # Number of times decode resolved a  branch
system.switch_cpus.decode.branchMispred         75608                       # Number of times decode detected a branch misprediction
system.switch_cpus.decode.decodedInsts       37086771                       # Number of instructions handled by decode
system.switch_cpus.decode.squashedInsts         76812                       # Number of squashed instructions handled by decode
system.switch_cpus.dtb.rdAccesses             3457213                       # TLB accesses on read requests
system.switch_cpus.dtb.wrAccesses             1486486                       # TLB accesses on write requests
system.switch_cpus.dtb.rdMisses                    24                       # TLB misses on read requests
system.switch_cpus.dtb.wrMisses                    12                       # TLB misses on write requests
system.switch_cpus.dtb.walker.power_state.pwrStateResidencyTicks::UNDEFINED   6506938000                       # Cumulative time (in ticks) in various power states
system.switch_cpus.fetch.icacheStallCycles      3580194                       # Number of cycles fetch is stalled on an Icache miss
system.switch_cpus.fetch.insts               22979511                       # Number of instructions fetch has processed
system.switch_cpus.fetch.branches             3951098                       # Number of branches that fetch encountered
system.switch_cpus.fetch.predictedBranches      2260006                       # Number of branches that fetch has predicted taken
system.switch_cpus.fetch.cycles               6598406                       # Number of cycles fetch has run and was not squashing or blocked
system.switch_cpus.fetch.squashCycles         1186384                       # Number of cycles fetch has spent squashing
system.switch_cpus.fetch.miscStallCycles            1                       # Number of cycles fetch has spent waiting on interrupts,or bad addresses, or out of MSHRs
system.switch_cpus.fetch.icacheWaitRetryStallCycles           17                       # Number of stall cycles due to full MSHR
system.switch_cpus.fetch.cacheLines           3142212                       # Number of cache lines fetched
system.switch_cpus.fetch.icacheSquashes        126138                       # Number of outstanding Icache misses that were squashed
system.switch_cpus.fetch.nisnDist::samples     10771810                       # Number of instructions fetched each cycle (Total)
system.switch_cpus.fetch.nisnDist::mean      3.712581                       # Number of instructions fetched each cycle (Total)
system.switch_cpus.fetch.nisnDist::stdev     3.515018                       # Number of instructions fetched each cycle (Total)
system.switch_cpus.fetch.nisnDist::underflows            0      0.00%      0.00% # Number of instructions fetched each cycle (Total)
system.switch_cpus.fetch.nisnDist::0          4386548     40.72%     40.72% # Number of instructions fetched each cycle (Total)
system.switch_cpus.fetch.nisnDist::1           235756      2.19%     42.91% # Number of instructions fetched each cycle (Total)
system.switch_cpus.fetch.nisnDist::2           272096      2.53%     45.44% # Number of instructions fetched each cycle (Total)
system.switch_cpus.fetch.nisnDist::3           522628      4.85%     50.29% # Number of instructions fetched each cycle (Total)
system.switch_cpus.fetch.nisnDist::4           564375      5.24%     55.53% # Number of instructions fetched each cycle (Total)
system.switch_cpus.fetch.nisnDist::5           525935      4.88%     60.41% # Number of instructions fetched each cycle (Total)
system.switch_cpus.fetch.nisnDist::6           410626      3.81%     64.22% # Number of instructions fetched each cycle (Total)
system.switch_cpus.fetch.nisnDist::7           538317      5.00%     69.22% # Number of instructions fetched each cycle (Total)
system.switch_cpus.fetch.nisnDist::8          3315529     30.78%    100.00% # Number of instructions fetched each cycle (Total)
system.switch_cpus.fetch.nisnDist::overflows            0      0.00%    100.00% # Number of instructions fetched each cycle (Total)
system.switch_cpus.fetch.nisnDist::min_value            0                       # Number of instructions fetched each cycle (Total)
system.switch_cpus.fetch.nisnDist::max_value            8                       # Number of instructions fetched each cycle (Total)
system.switch_cpus.fetch.nisnDist::total     10771810                       # Number of instructions fetched each cycle (Total)
system.switch_cpus.fetch.branchRate          0.364613                       # Number of branch fetches per cycle
system.switch_cpus.fetch.rate                2.120580                       # Number of inst fetches per cycle
system.switch_cpus.itb.rdAccesses                   0                       # TLB accesses on read requests
system.switch_cpus.itb.wrAccesses             3142212                       # TLB accesses on write requests
system.switch_cpus.itb.rdMisses                     0                       # TLB misses on read requests
system.switch_cpus.itb.wrMisses                    42                       # TLB misses on write requests
system.switch_cpus.itb.walker.power_state.pwrStateResidencyTicks::UNDEFINED   6506938000                       # Cumulative time (in ticks) in various power states
system.switch_cpus.lsq0.forwLoads              159221                       # Number of loads that had data forwarded from stores
system.switch_cpus.lsq0.squashedLoads         1971033                       # Number of loads squashed
system.switch_cpus.lsq0.ignoredResponses         6505                       # Number of memory responses ignored because the instruction is squashed
system.switch_cpus.lsq0.memOrderViolation         2352                       # Number of memory ordering violations
system.switch_cpus.lsq0.squashedStores         873221                       # Number of stores squashed
system.switch_cpus.lsq0.rescheduledLoads           10                       # Number of loads that were rescheduled
system.switch_cpus.lsq0.blockedByCache              0                       # Number of times an access to memory failed due to the cache being blocked
system.switch_cpus.power_state.pwrStateResidencyTicks::OFF   6506938000                       # Cumulative time (in ticks) in various power states
system.switch_cpus.rename.squashCycles         523387                       # Number of cycles rename is squashing
system.switch_cpus.rename.idleCycles          3544675                       # Number of cycles rename is idle
system.switch_cpus.rename.blockCycles         1344424                       # Number of cycles rename is blocking
system.switch_cpus.rename.serializeStallCycles            0                       # count of cycles rename stalledfor serializing inst
system.switch_cpus.rename.runCycles           5144672                       # Number of cycles rename is running
system.switch_cpus.rename.unblockCycles        214648                       # Number of cycles rename is unblocking
system.switch_cpus.rename.renamedInsts       34835624                       # Number of instructions processed by rename
system.switch_cpus.rename.ROBFullEvents          3380                       # Number of times rename has blocked due to ROB full
system.switch_cpus.rename.IQFullEvents          39260                       # Number of times rename has blocked due to IQ full
system.switch_cpus.rename.LQFullEvents            630                       # Number of times rename has blocked due to LQ full
system.switch_cpus.rename.SQFullEvents          81738                       # Number of times rename has blocked due to SQ full
system.switch_cpus.rename.renamedOperands     45698548                       # Number of destination operands rename has renamed
system.switch_cpus.rename.lookups            89098470                       # Number of register rename lookups that rename has made
system.switch_cpus.rename.intLookups         54744441                       # Number of integer rename lookups
system.switch_cpus.rename.fpLookups             47693                       # Number of floating rename lookups
system.switch_cpus.rename.committedMaps      23516777                       # Number of HB maps that are committed
system.switch_cpus.rename.undoneMaps         22181750                       # Number of HB maps that are undone due to squashing
system.switch_cpus.rename.serializing               0                       # count of serializing insts renamed
system.switch_cpus.rename.tempSerializing            0                       # count of temporary serializing insts renamed
system.switch_cpus.rename.skidInsts            925770                       # count of insts added to the skid buffer
system.switch_cpus.rob.reads                 38274426                       # The number of ROB reads
system.switch_cpus.rob.writes                62603784                       # The number of ROB writes
system.switch_cpus.thread_0.numInsts         10000001                       # Number of Instructions committed
system.switch_cpus.thread_0.numOps           17415167                       # Number of Ops committed
system.switch_cpus.thread_0.numMemRefs              0                       # Number of Memory References
system.tol2bus.trans_dist::ReadResp              4991                       # Transaction distribution
system.tol2bus.trans_dist::WritebackDirty          172                       # Transaction distribution
system.tol2bus.trans_dist::WritebackClean         4943                       # Transaction distribution
system.tol2bus.trans_dist::CleanEvict             269                       # Transaction distribution
system.tol2bus.trans_dist::ReadExReq               83                       # Transaction distribution
system.tol2bus.trans_dist::ReadExResp              83                       # Transaction distribution
system.tol2bus.trans_dist::ReadCleanReq          4962                       # Transaction distribution
system.tol2bus.trans_dist::ReadSharedReq           29                       # Transaction distribution
system.tol2bus.pkt_count_system.cpu.icache.mem_side_port::system.l2.cpu_side_port        14867                       # Packet count per connected requestor and responder (bytes)
system.tol2bus.pkt_count_system.cpu.dcache.mem_side_port::system.l2.cpu_side_port          336                       # Packet count per connected requestor and responder (bytes)
system.tol2bus.pkt_count::total                 15203                       # Packet count per connected requestor and responder (bytes)
system.tol2bus.pkt_size_system.cpu.icache.mem_side_port::system.l2.cpu_side_port       633920                       # Cumulative packet size per connected requestor and responder (bytes)
system.tol2bus.pkt_size_system.cpu.dcache.mem_side_port::system.l2.cpu_side_port        13696                       # Cumulative packet size per connected requestor and responder (bytes)
system.tol2bus.pkt_size::total                 647616                       # Cumulative packet size per connected requestor and responder (bytes)
system.tol2bus.snoops                             329                       # Total snoops (count)
system.tol2bus.snoopTraffic                      4480                       # Total snoop traffic (bytes)
system.tol2bus.snoop_fanout::samples             5403                       # Request fanout histogram
system.tol2bus.snoop_fanout::mean            0.000925                       # Request fanout histogram
system.tol2bus.snoop_fanout::stdev           0.030409                       # Request fanout histogram
system.tol2bus.snoop_fanout::underflows             0      0.00%      0.00% # Request fanout histogram
system.tol2bus.snoop_fanout::0                   5398     99.91%     99.91% # Request fanout histogram
system.tol2bus.snoop_fanout::1                      5      0.09%    100.00% # Request fanout histogram
system.tol2bus.snoop_fanout::2                      0      0.00%    100.00% # Request fanout histogram
system.tol2bus.snoop_fanout::3                      0      0.00%    100.00% # Request fanout histogram
system.tol2bus.snoop_fanout::4                      0      0.00%    100.00% # Request fanout histogram
system.tol2bus.snoop_fanout::overflows              0      0.00%    100.00% # Request fanout histogram
system.tol2bus.snoop_fanout::min_value              0                       # Request fanout histogram
system.tol2bus.snoop_fanout::max_value              1                       # Request fanout histogram
system.tol2bus.snoop_fanout::total               5403                       # Request fanout histogram
system.tol2bus.power_state.pwrStateResidencyTicks::UNDEFINED   6506938000                       # Cumulative time (in ticks) in various power states
system.tol2bus.reqLayer0.occupancy           10109500                       # Layer occupancy (ticks)
system.tol2bus.reqLayer0.utilization              0.2                       # Layer utilization (%)
system.tol2bus.respLayer0.occupancy           7443000                       # Layer occupancy (ticks)
system.tol2bus.respLayer0.utilization             0.1                       # Layer utilization (%)
system.tol2bus.respLayer1.occupancy            168000                       # Layer occupancy (ticks)
system.tol2bus.respLayer1.utilization             0.0                       # Layer utilization (%)
system.voltage_domain.voltage                       1                       # Voltage in Volts

---------- End Simulation Statistics   ----------
