
---------- Begin Simulation Statistics ----------
final_tick                                 5032115000                       # Number of ticks from beginning of simulation (restored from checkpoints and never reset)
host_inst_rate                                 108053                       # Simulator instruction rate (inst/s)
host_mem_usage                                8737412                       # Number of bytes of host memory used
host_op_rate                                   204540                       # Simulator op (including micro ops) rate (op/s)
host_seconds                                    61.34                       # Real time elapsed on the host
host_tick_rate                               64907257                       # Simulator tick rate (ticks/s)
sim_freq                                 1000000000000                       # Frequency of simulated ticks
sim_insts                                     6628200                       # Number of instructions simulated
sim_ops                                      12546979                       # Number of ops (including micro ops) simulated
sim_seconds                                  0.003982                       # Number of seconds simulated
sim_ticks                                  3981567500                       # Number of ticks simulated
system.cpu.committedInsts                           0                       # Number of instructions committed
system.cpu.committedOps                             0                       # Number of ops (including micro ops) committed
system.cpu.idle_fraction                            0                       # Percentage of idle cycles
system.cpu.not_idle_fraction                        1                       # Percentage of non-idle cycles
system.cpu.numCycles                                0                       # number of cpu cycles simulated
system.cpu.numWorkItemsCompleted                    0                       # number of work items this cpu completed
system.cpu.numWorkItemsStarted                      0                       # number of work items this cpu started
system.cpu.num_busy_cycles                          0                       # Number of busy cycles
system.cpu.num_conditional_control_insts            0                       # number of instructions that are conditional controls
system.cpu.num_fp_alu_accesses                      0                       # Number of float alu accesses
system.cpu.num_fp_insts                             0                       # number of float instructions
system.cpu.num_fp_register_reads                    0                       # number of times the floating registers were read
system.cpu.num_fp_register_writes                   0                       # number of times the floating registers were written
system.cpu.num_func_calls                           0                       # number of times a function call or return occured
system.cpu.num_idle_cycles                          0                       # Number of idle cycles
system.cpu.num_int_alu_accesses                     0                       # Number of integer alu accesses
system.cpu.num_int_insts                            0                       # number of integer instructions
system.cpu.num_int_register_reads                   0                       # number of times the integer registers were read
system.cpu.num_int_register_writes                  0                       # number of times the integer registers were written
system.cpu.num_load_insts                           0                       # Number of load instructions
system.cpu.num_mem_refs                             0                       # number of memory refs
system.cpu.num_store_insts                          0                       # Number of store instructions
system.cpu.num_vec_alu_accesses                     0                       # Number of vector alu accesses
system.cpu.num_vec_insts                            0                       # number of vector instructions
system.cpu.num_vec_register_reads                   0                       # number of times the vector registers were read
system.cpu.num_vec_register_writes                  0                       # number of times the vector registers were written
system.cpu.op_class::No_OpClass                     0                       # Class of executed instruction
system.cpu.op_class::IntAlu                         0                       # Class of executed instruction
system.cpu.op_class::IntMult                        0                       # Class of executed instruction
system.cpu.op_class::IntDiv                         0                       # Class of executed instruction
system.cpu.op_class::FloatAdd                       0                       # Class of executed instruction
system.cpu.op_class::FloatCmp                       0                       # Class of executed instruction
system.cpu.op_class::FloatCvt                       0                       # Class of executed instruction
system.cpu.op_class::FloatMult                      0                       # Class of executed instruction
system.cpu.op_class::FloatMultAcc                   0                       # Class of executed instruction
system.cpu.op_class::FloatDiv                       0                       # Class of executed instruction
system.cpu.op_class::FloatMisc                      0                       # Class of executed instruction
system.cpu.op_class::FloatSqrt                      0                       # Class of executed instruction
system.cpu.op_class::SimdAdd                        0                       # Class of executed instruction
system.cpu.op_class::SimdAddAcc                     0                       # Class of executed instruction
system.cpu.op_class::SimdAlu                        0                       # Class of executed instruction
system.cpu.op_class::SimdCmp                        0                       # Class of executed instruction
system.cpu.op_class::SimdCvt                        0                       # Class of executed instruction
system.cpu.op_class::SimdMisc                       0                       # Class of executed instruction
system.cpu.op_class::SimdMult                       0                       # Class of executed instruction
system.cpu.op_class::SimdMultAcc                    0                       # Class of executed instruction
system.cpu.op_class::SimdShift                      0                       # Class of executed instruction
system.cpu.op_class::SimdShiftAcc                   0                       # Class of executed instruction
system.cpu.op_class::SimdDiv                        0                       # Class of executed instruction
system.cpu.op_class::SimdSqrt                       0                       # Class of executed instruction
system.cpu.op_class::SimdFloatAdd                   0                       # Class of executed instruction
system.cpu.op_class::SimdFloatAlu                   0                       # Class of executed instruction
system.cpu.op_class::SimdFloatCmp                   0                       # Class of executed instruction
system.cpu.op_class::SimdFloatCvt                   0                       # Class of executed instruction
system.cpu.op_class::SimdFloatDiv                   0                       # Class of executed instruction
system.cpu.op_class::SimdFloatMisc                  0                       # Class of executed instruction
system.cpu.op_class::SimdFloatMult                  0                       # Class of executed instruction
system.cpu.op_class::SimdFloatMultAcc               0                       # Class of executed instruction
system.cpu.op_class::SimdFloatSqrt                  0                       # Class of executed instruction
system.cpu.op_class::SimdReduceAdd                  0                       # Class of executed instruction
system.cpu.op_class::SimdReduceAlu                  0                       # Class of executed instruction
system.cpu.op_class::SimdReduceCmp                  0                       # Class of executed instruction
system.cpu.op_class::SimdFloatReduceAdd             0                       # Class of executed instruction
system.cpu.op_class::SimdFloatReduceCmp             0                       # Class of executed instruction
system.cpu.op_class::SimdAes                        0                       # Class of executed instruction
system.cpu.op_class::SimdAesMix                     0                       # Class of executed instruction
system.cpu.op_class::SimdSha1Hash                   0                       # Class of executed instruction
system.cpu.op_class::SimdSha1Hash2                  0                       # Class of executed instruction
system.cpu.op_class::SimdSha256Hash                 0                       # Class of executed instruction
system.cpu.op_class::SimdSha256Hash2                0                       # Class of executed instruction
system.cpu.op_class::SimdShaSigma2                  0                       # Class of executed instruction
system.cpu.op_class::SimdShaSigma3                  0                       # Class of executed instruction
system.cpu.op_class::SimdPredAlu                    0                       # Class of executed instruction
system.cpu.op_class::MemRead                        0                       # Class of executed instruction
system.cpu.op_class::MemWrite                       0                       # Class of executed instruction
system.cpu.op_class::FloatMemRead                   0                       # Class of executed instruction
system.cpu.op_class::FloatMemWrite                  0                       # Class of executed instruction
system.cpu.op_class::IprAccess                      0                       # Class of executed instruction
system.cpu.op_class::InstPrefetch                   0                       # Class of executed instruction
system.cpu.op_class::total                          0                       # Class of executed instruction
system.cpu.workload.numSyscalls                    44                       # Number of system calls
system.membus.snoop_filter.hit_multi_requests            0                       # Number of requests hitting in the snoop filter with multiple (>1) holders of the requested data.
system.membus.snoop_filter.hit_multi_snoops            0                       # Number of snoops hitting in the snoop filter with multiple (>1) holders of the requested data.
system.membus.snoop_filter.hit_single_requests        26772                       # Number of requests hitting in the snoop filter with a single holder of the requested data.
system.membus.snoop_filter.hit_single_snoops            0                       # Number of snoops hitting in the snoop filter with a single holder of the requested data.
system.membus.snoop_filter.tot_requests         55479                       # Total number of requests made to the snoop filter.
system.membus.snoop_filter.tot_snoops               0                       # Total number of snoops made to the snoop filter.
system.switch_cpus.cc_regfile_reads           7504479                       # number of cc regfile reads
system.switch_cpus.cc_regfile_writes          4545866                       # number of cc regfile writes
system.switch_cpus.committedInsts             5628199                       # Number of Instructions Simulated
system.switch_cpus.committedOps              10786153                       # Number of Ops (including micro ops) Simulated
system.switch_cpus.cpi                       1.414864                       # CPI: Cycles Per Instruction
system.switch_cpus.cpi_total                 1.414864                       # CPI: Total CPI of All Threads
system.switch_cpus.fp_regfile_reads            819412                       # number of floating regfile reads
system.switch_cpus.fp_regfile_writes           464609                       # number of floating regfile writes
system.switch_cpus.idleCycles                  565876                       # Total number of cycles that the CPU has spent unscheduled due to idling
system.switch_cpus.iew.branchMispredicts       213880                       # Number of branch mispredicts detected at execute
system.switch_cpus.iew.exec_branches          1410851                       # Number of branches executed
system.switch_cpus.iew.exec_nop                     0                       # number of nop insts executed
system.switch_cpus.iew.exec_rate             1.823784                       # Inst execution rate
system.switch_cpus.iew.exec_refs              2742660                       # number of memory reference insts executed
system.switch_cpus.iew.exec_stores             870950                       # Number of stores executed
system.switch_cpus.iew.exec_swp                     0                       # number of swp insts executed
system.switch_cpus.iew.iewBlockCycles         1432999                       # Number of cycles IEW is blocking
system.switch_cpus.iew.iewDispLoadInsts       2124891                       # Number of dispatched load instructions
system.switch_cpus.iew.iewDispNonSpecInsts         1339                       # Number of dispatched non-speculative instructions
system.switch_cpus.iew.iewDispSquashedInsts        30090                       # Number of squashed instructions skipped by dispatch
system.switch_cpus.iew.iewDispStoreInsts      1025897                       # Number of dispatched store instructions
system.switch_cpus.iew.iewDispatchedInsts     16734866                       # Number of instructions dispatched to IQ
system.switch_cpus.iew.iewExecLoadInsts       1871710                       # Number of load instructions executed
system.switch_cpus.iew.iewExecSquashedInsts       375973                       # Number of squashed instructions skipped in execute
system.switch_cpus.iew.iewExecutedInsts      14523035                       # Number of executed instructions
system.switch_cpus.iew.iewIQFullEvents          10713                       # Number of times the IQ has become full, causing a stall
system.switch_cpus.iew.iewIdleCycles                0                       # Number of cycles IEW is idle
system.switch_cpus.iew.iewLSQFullEvents        125878                       # Number of times the LSQ has become full, causing a stall
system.switch_cpus.iew.iewSquashCycles         167702                       # Number of cycles IEW is squashing
system.switch_cpus.iew.iewUnblockCycles        141011                       # Number of cycles IEW is unblocking
system.switch_cpus.iew.memOrderViolationEvents          968                       # Number of memory order violations
system.switch_cpus.iew.predictedNotTakenIncorrect       135963                       # Number of branches that were predicted not taken incorrectly
system.switch_cpus.iew.predictedTakenIncorrect        77917                       # Number of branches that were predicted taken incorrectly
system.switch_cpus.iew.wb_consumers          17575038                       # num instructions consuming a value
system.switch_cpus.iew.wb_count              14299887                       # cumulative count of insts written-back
system.switch_cpus.iew.wb_fanout             0.586502                       # average fanout of values written-back
system.switch_cpus.iew.wb_producers          10307791                       # num instructions producing a value
system.switch_cpus.iew.wb_rate               1.795761                       # insts written-back per cycle
system.switch_cpus.iew.wb_sent               14388585                       # cumulative count of insts sent to commit
system.switch_cpus.int_regfile_reads         20417569                       # number of integer regfile reads
system.switch_cpus.int_regfile_writes        11244664                       # number of integer regfile writes
system.switch_cpus.ipc                       0.706782                       # IPC: Instructions Per Cycle
system.switch_cpus.ipc_total                 0.706782                       # IPC: Total IPC of All Threads
system.switch_cpus.iq.FU_type_0::No_OpClass       542277      3.64%      3.64% # Type of FU issued
system.switch_cpus.iq.FU_type_0::IntAlu      11087841     74.42%     78.06% # Type of FU issued
system.switch_cpus.iq.FU_type_0::IntMult        12482      0.08%     78.14% # Type of FU issued
system.switch_cpus.iq.FU_type_0::IntDiv         29733      0.20%     78.34% # Type of FU issued
system.switch_cpus.iq.FU_type_0::FloatAdd        24094      0.16%     78.50% # Type of FU issued
system.switch_cpus.iq.FU_type_0::FloatCmp            0      0.00%     78.50% # Type of FU issued
system.switch_cpus.iq.FU_type_0::FloatCvt         1896      0.01%     78.52% # Type of FU issued
system.switch_cpus.iq.FU_type_0::FloatMult            0      0.00%     78.52% # Type of FU issued
system.switch_cpus.iq.FU_type_0::FloatMultAcc            0      0.00%     78.52% # Type of FU issued
system.switch_cpus.iq.FU_type_0::FloatDiv            0      0.00%     78.52% # Type of FU issued
system.switch_cpus.iq.FU_type_0::FloatMisc            0      0.00%     78.52% # Type of FU issued
system.switch_cpus.iq.FU_type_0::FloatSqrt            0      0.00%     78.52% # Type of FU issued
system.switch_cpus.iq.FU_type_0::SimdAdd        12042      0.08%     78.60% # Type of FU issued
system.switch_cpus.iq.FU_type_0::SimdAddAcc            0      0.00%     78.60% # Type of FU issued
system.switch_cpus.iq.FU_type_0::SimdAlu        97450      0.65%     79.25% # Type of FU issued
system.switch_cpus.iq.FU_type_0::SimdCmp         3936      0.03%     79.28% # Type of FU issued
system.switch_cpus.iq.FU_type_0::SimdCvt        93451      0.63%     79.91% # Type of FU issued
system.switch_cpus.iq.FU_type_0::SimdMisc       116827      0.78%     80.69% # Type of FU issued
system.switch_cpus.iq.FU_type_0::SimdMult            0      0.00%     80.69% # Type of FU issued
system.switch_cpus.iq.FU_type_0::SimdMultAcc            0      0.00%     80.69% # Type of FU issued
system.switch_cpus.iq.FU_type_0::SimdShift         8868      0.06%     80.75% # Type of FU issued
system.switch_cpus.iq.FU_type_0::SimdShiftAcc            0      0.00%     80.75% # Type of FU issued
system.switch_cpus.iq.FU_type_0::SimdDiv            0      0.00%     80.75% # Type of FU issued
system.switch_cpus.iq.FU_type_0::SimdSqrt            0      0.00%     80.75% # Type of FU issued
system.switch_cpus.iq.FU_type_0::SimdFloatAdd           15      0.00%     80.75% # Type of FU issued
system.switch_cpus.iq.FU_type_0::SimdFloatAlu            0      0.00%     80.75% # Type of FU issued
system.switch_cpus.iq.FU_type_0::SimdFloatCmp            0      0.00%     80.75% # Type of FU issued
system.switch_cpus.iq.FU_type_0::SimdFloatCvt           58      0.00%     80.75% # Type of FU issued
system.switch_cpus.iq.FU_type_0::SimdFloatDiv           32      0.00%     80.75% # Type of FU issued
system.switch_cpus.iq.FU_type_0::SimdFloatMisc            0      0.00%     80.75% # Type of FU issued
system.switch_cpus.iq.FU_type_0::SimdFloatMult           12      0.00%     80.75% # Type of FU issued
system.switch_cpus.iq.FU_type_0::SimdFloatMultAcc            0      0.00%     80.75% # Type of FU issued
system.switch_cpus.iq.FU_type_0::SimdFloatSqrt            0      0.00%     80.75% # Type of FU issued
system.switch_cpus.iq.FU_type_0::SimdReduceAdd            0      0.00%     80.75% # Type of FU issued
system.switch_cpus.iq.FU_type_0::SimdReduceAlu            0      0.00%     80.75% # Type of FU issued
system.switch_cpus.iq.FU_type_0::SimdReduceCmp            0      0.00%     80.75% # Type of FU issued
system.switch_cpus.iq.FU_type_0::SimdFloatReduceAdd            0      0.00%     80.75% # Type of FU issued
system.switch_cpus.iq.FU_type_0::SimdFloatReduceCmp            0      0.00%     80.75% # Type of FU issued
system.switch_cpus.iq.FU_type_0::SimdAes            0      0.00%     80.75% # Type of FU issued
system.switch_cpus.iq.FU_type_0::SimdAesMix            0      0.00%     80.75% # Type of FU issued
system.switch_cpus.iq.FU_type_0::SimdSha1Hash            0      0.00%     80.75% # Type of FU issued
system.switch_cpus.iq.FU_type_0::SimdSha1Hash2            0      0.00%     80.75% # Type of FU issued
system.switch_cpus.iq.FU_type_0::SimdSha256Hash            0      0.00%     80.75% # Type of FU issued
system.switch_cpus.iq.FU_type_0::SimdSha256Hash2            0      0.00%     80.75% # Type of FU issued
system.switch_cpus.iq.FU_type_0::SimdShaSigma2            0      0.00%     80.75% # Type of FU issued
system.switch_cpus.iq.FU_type_0::SimdShaSigma3            0      0.00%     80.75% # Type of FU issued
system.switch_cpus.iq.FU_type_0::SimdPredAlu            0      0.00%     80.75% # Type of FU issued
system.switch_cpus.iq.FU_type_0::MemRead      1772625     11.90%     92.65% # Type of FU issued
system.switch_cpus.iq.FU_type_0::MemWrite       837483      5.62%     98.27% # Type of FU issued
system.switch_cpus.iq.FU_type_0::FloatMemRead       191325      1.28%     99.55% # Type of FU issued
system.switch_cpus.iq.FU_type_0::FloatMemWrite        66561      0.45%    100.00% # Type of FU issued
system.switch_cpus.iq.FU_type_0::IprAccess            0      0.00%    100.00% # Type of FU issued
system.switch_cpus.iq.FU_type_0::InstPrefetch            0      0.00%    100.00% # Type of FU issued
system.switch_cpus.iq.FU_type_0::total       14899008                       # Type of FU issued
system.switch_cpus.iq.fp_alu_accesses          678767                       # Number of floating point alu accesses
system.switch_cpus.iq.fp_inst_queue_reads      1337765                       # Number of floating instruction queue reads
system.switch_cpus.iq.fp_inst_queue_wakeup_accesses       575257                       # Number of floating instruction queue wakeup accesses
system.switch_cpus.iq.fp_inst_queue_writes      1179798                       # Number of floating instruction queue writes
system.switch_cpus.iq.fu_busy_cnt              238053                       # FU busy when requested
system.switch_cpus.iq.fu_busy_rate           0.015978                       # FU busy rate (busy events/executed inst)
system.switch_cpus.iq.fu_full::No_OpClass            0      0.00%      0.00% # attempts to use FU when none available
system.switch_cpus.iq.fu_full::IntAlu          178654     75.05%     75.05% # attempts to use FU when none available
system.switch_cpus.iq.fu_full::IntMult              0      0.00%     75.05% # attempts to use FU when none available
system.switch_cpus.iq.fu_full::IntDiv               0      0.00%     75.05% # attempts to use FU when none available
system.switch_cpus.iq.fu_full::FloatAdd             0      0.00%     75.05% # attempts to use FU when none available
system.switch_cpus.iq.fu_full::FloatCmp             0      0.00%     75.05% # attempts to use FU when none available
system.switch_cpus.iq.fu_full::FloatCvt             1      0.00%     75.05% # attempts to use FU when none available
system.switch_cpus.iq.fu_full::FloatMult            0      0.00%     75.05% # attempts to use FU when none available
system.switch_cpus.iq.fu_full::FloatMultAcc            0      0.00%     75.05% # attempts to use FU when none available
system.switch_cpus.iq.fu_full::FloatDiv             0      0.00%     75.05% # attempts to use FU when none available
system.switch_cpus.iq.fu_full::FloatMisc            0      0.00%     75.05% # attempts to use FU when none available
system.switch_cpus.iq.fu_full::FloatSqrt            0      0.00%     75.05% # attempts to use FU when none available
system.switch_cpus.iq.fu_full::SimdAdd              1      0.00%     75.05% # attempts to use FU when none available
system.switch_cpus.iq.fu_full::SimdAddAcc            0      0.00%     75.05% # attempts to use FU when none available
system.switch_cpus.iq.fu_full::SimdAlu           4251      1.79%     76.83% # attempts to use FU when none available
system.switch_cpus.iq.fu_full::SimdCmp             12      0.01%     76.84% # attempts to use FU when none available
system.switch_cpus.iq.fu_full::SimdCvt           3330      1.40%     78.24% # attempts to use FU when none available
system.switch_cpus.iq.fu_full::SimdMisc          2923      1.23%     79.47% # attempts to use FU when none available
system.switch_cpus.iq.fu_full::SimdMult             0      0.00%     79.47% # attempts to use FU when none available
system.switch_cpus.iq.fu_full::SimdMultAcc            0      0.00%     79.47% # attempts to use FU when none available
system.switch_cpus.iq.fu_full::SimdShift          336      0.14%     79.61% # attempts to use FU when none available
system.switch_cpus.iq.fu_full::SimdShiftAcc            0      0.00%     79.61% # attempts to use FU when none available
system.switch_cpus.iq.fu_full::SimdDiv              0      0.00%     79.61% # attempts to use FU when none available
system.switch_cpus.iq.fu_full::SimdSqrt             0      0.00%     79.61% # attempts to use FU when none available
system.switch_cpus.iq.fu_full::SimdFloatAdd            0      0.00%     79.61% # attempts to use FU when none available
system.switch_cpus.iq.fu_full::SimdFloatAlu            0      0.00%     79.61% # attempts to use FU when none available
system.switch_cpus.iq.fu_full::SimdFloatCmp            0      0.00%     79.61% # attempts to use FU when none available
system.switch_cpus.iq.fu_full::SimdFloatCvt            0      0.00%     79.61% # attempts to use FU when none available
system.switch_cpus.iq.fu_full::SimdFloatDiv            0      0.00%     79.61% # attempts to use FU when none available
system.switch_cpus.iq.fu_full::SimdFloatMisc            0      0.00%     79.61% # attempts to use FU when none available
system.switch_cpus.iq.fu_full::SimdFloatMult            0      0.00%     79.61% # attempts to use FU when none available
system.switch_cpus.iq.fu_full::SimdFloatMultAcc            0      0.00%     79.61% # attempts to use FU when none available
system.switch_cpus.iq.fu_full::SimdFloatSqrt            0      0.00%     79.61% # attempts to use FU when none available
system.switch_cpus.iq.fu_full::SimdReduceAdd            0      0.00%     79.61% # attempts to use FU when none available
system.switch_cpus.iq.fu_full::SimdReduceAlu            0      0.00%     79.61% # attempts to use FU when none available
system.switch_cpus.iq.fu_full::SimdReduceCmp            0      0.00%     79.61% # attempts to use FU when none available
system.switch_cpus.iq.fu_full::SimdFloatReduceAdd            0      0.00%     79.61% # attempts to use FU when none available
system.switch_cpus.iq.fu_full::SimdFloatReduceCmp            0      0.00%     79.61% # attempts to use FU when none available
system.switch_cpus.iq.fu_full::SimdAes              0      0.00%     79.61% # attempts to use FU when none available
system.switch_cpus.iq.fu_full::SimdAesMix            0      0.00%     79.61% # attempts to use FU when none available
system.switch_cpus.iq.fu_full::SimdSha1Hash            0      0.00%     79.61% # attempts to use FU when none available
system.switch_cpus.iq.fu_full::SimdSha1Hash2            0      0.00%     79.61% # attempts to use FU when none available
system.switch_cpus.iq.fu_full::SimdSha256Hash            0      0.00%     79.61% # attempts to use FU when none available
system.switch_cpus.iq.fu_full::SimdSha256Hash2            0      0.00%     79.61% # attempts to use FU when none available
system.switch_cpus.iq.fu_full::SimdShaSigma2            0      0.00%     79.61% # attempts to use FU when none available
system.switch_cpus.iq.fu_full::SimdShaSigma3            0      0.00%     79.61% # attempts to use FU when none available
system.switch_cpus.iq.fu_full::SimdPredAlu            0      0.00%     79.61% # attempts to use FU when none available
system.switch_cpus.iq.fu_full::MemRead          15416      6.48%     86.08% # attempts to use FU when none available
system.switch_cpus.iq.fu_full::MemWrite         12969      5.45%     91.53% # attempts to use FU when none available
system.switch_cpus.iq.fu_full::FloatMemRead        15091      6.34%     97.87% # attempts to use FU when none available
system.switch_cpus.iq.fu_full::FloatMemWrite         5069      2.13%    100.00% # attempts to use FU when none available
system.switch_cpus.iq.fu_full::IprAccess            0      0.00%    100.00% # attempts to use FU when none available
system.switch_cpus.iq.fu_full::InstPrefetch            0      0.00%    100.00% # attempts to use FU when none available
system.switch_cpus.iq.int_alu_accesses       13916017                       # Number of integer alu accesses
system.switch_cpus.iq.int_inst_queue_reads     36138369                       # Number of integer instruction queue reads
system.switch_cpus.iq.int_inst_queue_wakeup_accesses     13724630                       # Number of integer instruction queue wakeup accesses
system.switch_cpus.iq.int_inst_queue_writes     21504626                       # Number of integer instruction queue writes
system.switch_cpus.iq.iqInstsAdded           16732344                       # Number of instructions added to the IQ (excludes non-spec)
system.switch_cpus.iq.iqInstsIssued          14899008                       # Number of instructions issued
system.switch_cpus.iq.iqNonSpecInstsAdded         2522                       # Number of non-speculative instructions added to the IQ
system.switch_cpus.iq.iqSquashedInstsExamined      5948707                       # Number of squashed instructions iterated over during squash; mainly for profiling
system.switch_cpus.iq.iqSquashedInstsIssued        42806                       # Number of squashed instructions issued
system.switch_cpus.iq.iqSquashedNonSpecRemoved         1368                       # Number of squashed non-spec instructions that were removed
system.switch_cpus.iq.iqSquashedOperandsExamined      7801535                       # Number of squashed operands that are examined and possibly removed from graph
system.switch_cpus.iq.issued_per_cycle::samples      7397259                       # Number of insts issued each cycle
system.switch_cpus.iq.issued_per_cycle::mean     2.014126                       # Number of insts issued each cycle
system.switch_cpus.iq.issued_per_cycle::stdev     2.437974                       # Number of insts issued each cycle
system.switch_cpus.iq.issued_per_cycle::underflows            0      0.00%      0.00% # Number of insts issued each cycle
system.switch_cpus.iq.issued_per_cycle::0      3580864     48.41%     48.41% # Number of insts issued each cycle
system.switch_cpus.iq.issued_per_cycle::1       533796      7.22%     55.62% # Number of insts issued each cycle
system.switch_cpus.iq.issued_per_cycle::2       608049      8.22%     63.84% # Number of insts issued each cycle
system.switch_cpus.iq.issued_per_cycle::3       626439      8.47%     72.31% # Number of insts issued each cycle
system.switch_cpus.iq.issued_per_cycle::4       578434      7.82%     80.13% # Number of insts issued each cycle
system.switch_cpus.iq.issued_per_cycle::5       517094      6.99%     87.12% # Number of insts issued each cycle
system.switch_cpus.iq.issued_per_cycle::6       487617      6.59%     93.71% # Number of insts issued each cycle
system.switch_cpus.iq.issued_per_cycle::7       274839      3.72%     97.43% # Number of insts issued each cycle
system.switch_cpus.iq.issued_per_cycle::8       190127      2.57%    100.00% # Number of insts issued each cycle
system.switch_cpus.iq.issued_per_cycle::overflows            0      0.00%    100.00% # Number of insts issued each cycle
system.switch_cpus.iq.issued_per_cycle::min_value            0                       # Number of insts issued each cycle
system.switch_cpus.iq.issued_per_cycle::max_value            8                       # Number of insts issued each cycle
system.switch_cpus.iq.issued_per_cycle::total      7397259                       # Number of insts issued each cycle
system.switch_cpus.iq.rate                   1.870998                       # Inst issue rate
system.switch_cpus.iq.vec_alu_accesses              0                       # Number of vector alu accesses
system.switch_cpus.iq.vec_inst_queue_reads            0                       # Number of vector instruction queue reads
system.switch_cpus.iq.vec_inst_queue_wakeup_accesses            0                       # Number of vector instruction queue wakeup accesses
system.switch_cpus.iq.vec_inst_queue_writes            0                       # Number of vector instruction queue writes
system.switch_cpus.memDep0.conflictingLoads        73227                       # Number of conflicting loads.
system.switch_cpus.memDep0.conflictingStores        72107                       # Number of conflicting stores.
system.switch_cpus.memDep0.insertedLoads      2124891                       # Number of loads inserted to the mem dependence unit.
system.switch_cpus.memDep0.insertedStores      1025897                       # Number of stores inserted to the mem dependence unit.
system.switch_cpus.misc_regfile_reads         5849652                       # number of misc regfile reads
system.switch_cpus.misc_regfile_writes            999                       # number of misc regfile writes
system.switch_cpus.numCycles                  7963135                       # number of cpu cycles simulated
system.switch_cpus.numWorkItemsCompleted            0                       # number of work items this cpu completed
system.switch_cpus.numWorkItemsStarted              0                       # number of work items this cpu started
system.switch_cpus.timesIdled                    8298                       # Number of times that the entire CPU went into an idle state and unscheduled itself
system.tol2bus.snoop_filter.hit_multi_requests          138                       # Number of requests hitting in the snoop filter with multiple (>1) holders of the requested data.
system.tol2bus.snoop_filter.hit_multi_snoops            0                       # Number of snoops hitting in the snoop filter with multiple (>1) holders of the requested data.
system.tol2bus.snoop_filter.hit_single_requests        56960                       # Number of requests hitting in the snoop filter with a single holder of the requested data.
system.tol2bus.snoop_filter.hit_single_snoops         1244                       # Number of snoops hitting in the snoop filter with a single holder of the requested data.
system.tol2bus.snoop_filter.tot_requests       114306                       # Total number of requests made to the snoop filter.
system.tol2bus.snoop_filter.tot_snoops           1244                       # Total number of snoops made to the snoop filter.
system.clk_domain.clock                          1000                       # Clock period in ticks
system.cpu.branchPred.lookups                       0                       # Number of BP lookups
system.cpu.branchPred.condPredicted                 0                       # Number of conditional branches predicted
system.cpu.branchPred.condIncorrect                 0                       # Number of conditional branches incorrect
system.cpu.branchPred.BTBLookups                    0                       # Number of BTB lookups
system.cpu.branchPred.BTBHits                       0                       # Number of BTB hits
system.cpu.branchPred.BTBHitPct                   nan                       # BTB Hit Percentage
system.cpu.branchPred.RASUsed                       0                       # Number of times the RAS was used to get a target.
system.cpu.branchPred.RASIncorrect                  0                       # Number of incorrect RAS predictions.
system.cpu.branchPred.indirectLookups               0                       # Number of indirect predictor lookups.
system.cpu.branchPred.indirectHits                  0                       # Number of indirect target hits.
system.cpu.branchPred.indirectMisses                0                       # Number of indirect misses.
system.cpu.branchPred.indirectMispredicted            0                       # Number of mispredicted indirect branches.
system.cpu.dcache.demand_hits::.switch_cpus.data      2290538                       # number of demand (read+write) hits
system.cpu.dcache.demand_hits::total          2290538                       # number of demand (read+write) hits
system.cpu.dcache.overall_hits::.switch_cpus.data      2293668                       # number of overall hits
system.cpu.dcache.overall_hits::total         2293668                       # number of overall hits
system.cpu.dcache.demand_misses::.switch_cpus.data        98960                       # number of demand (read+write) misses
system.cpu.dcache.demand_misses::total          98960                       # number of demand (read+write) misses
system.cpu.dcache.overall_misses::.switch_cpus.data        99022                       # number of overall misses
system.cpu.dcache.overall_misses::total         99022                       # number of overall misses
system.cpu.dcache.demand_miss_latency::.switch_cpus.data   5926842999                       # number of demand (read+write) miss cycles
system.cpu.dcache.demand_miss_latency::total   5926842999                       # number of demand (read+write) miss cycles
system.cpu.dcache.overall_miss_latency::.switch_cpus.data   5926842999                       # number of overall miss cycles
system.cpu.dcache.overall_miss_latency::total   5926842999                       # number of overall miss cycles
system.cpu.dcache.demand_accesses::.switch_cpus.data      2389498                       # number of demand (read+write) accesses
system.cpu.dcache.demand_accesses::total      2389498                       # number of demand (read+write) accesses
system.cpu.dcache.overall_accesses::.switch_cpus.data      2392690                       # number of overall (read+write) accesses
system.cpu.dcache.overall_accesses::total      2392690                       # number of overall (read+write) accesses
system.cpu.dcache.demand_miss_rate::.switch_cpus.data     0.041415                       # miss rate for demand accesses
system.cpu.dcache.demand_miss_rate::total     0.041415                       # miss rate for demand accesses
system.cpu.dcache.overall_miss_rate::.switch_cpus.data     0.041385                       # miss rate for overall accesses
system.cpu.dcache.overall_miss_rate::total     0.041385                       # miss rate for overall accesses
system.cpu.dcache.demand_avg_miss_latency::.switch_cpus.data 59891.299505                       # average overall miss latency
system.cpu.dcache.demand_avg_miss_latency::total 59891.299505                       # average overall miss latency
system.cpu.dcache.overall_avg_miss_latency::.switch_cpus.data 59853.800156                       # average overall miss latency
system.cpu.dcache.overall_avg_miss_latency::total 59853.800156                       # average overall miss latency
system.cpu.dcache.blocked_cycles::no_mshrs       194298                       # number of cycles access was blocked
system.cpu.dcache.blocked_cycles::no_targets          782                       # number of cycles access was blocked
system.cpu.dcache.blocked::no_mshrs              2829                       # number of cycles access was blocked
system.cpu.dcache.blocked::no_targets               7                       # number of cycles access was blocked
system.cpu.dcache.avg_blocked_cycles::no_mshrs    68.680806                       # average number of cycles each access was blocked
system.cpu.dcache.avg_blocked_cycles::no_targets   111.714286                       # average number of cycles each access was blocked
system.cpu.dcache.writebacks::.writebacks        13990                       # number of writebacks
system.cpu.dcache.writebacks::total             13990                       # number of writebacks
system.cpu.dcache.demand_mshr_hits::.switch_cpus.data        66461                       # number of demand (read+write) MSHR hits
system.cpu.dcache.demand_mshr_hits::total        66461                       # number of demand (read+write) MSHR hits
system.cpu.dcache.overall_mshr_hits::.switch_cpus.data        66461                       # number of overall MSHR hits
system.cpu.dcache.overall_mshr_hits::total        66461                       # number of overall MSHR hits
system.cpu.dcache.demand_mshr_misses::.switch_cpus.data        32499                       # number of demand (read+write) MSHR misses
system.cpu.dcache.demand_mshr_misses::total        32499                       # number of demand (read+write) MSHR misses
system.cpu.dcache.overall_mshr_misses::.switch_cpus.data        32523                       # number of overall MSHR misses
system.cpu.dcache.overall_mshr_misses::total        32523                       # number of overall MSHR misses
system.cpu.dcache.demand_mshr_miss_latency::.switch_cpus.data   1926106499                       # number of demand (read+write) MSHR miss cycles
system.cpu.dcache.demand_mshr_miss_latency::total   1926106499                       # number of demand (read+write) MSHR miss cycles
system.cpu.dcache.overall_mshr_miss_latency::.switch_cpus.data   1927377499                       # number of overall MSHR miss cycles
system.cpu.dcache.overall_mshr_miss_latency::total   1927377499                       # number of overall MSHR miss cycles
system.cpu.dcache.demand_mshr_miss_rate::.switch_cpus.data     0.013601                       # mshr miss rate for demand accesses
system.cpu.dcache.demand_mshr_miss_rate::total     0.013601                       # mshr miss rate for demand accesses
system.cpu.dcache.overall_mshr_miss_rate::.switch_cpus.data     0.013593                       # mshr miss rate for overall accesses
system.cpu.dcache.overall_mshr_miss_rate::total     0.013593                       # mshr miss rate for overall accesses
system.cpu.dcache.demand_avg_mshr_miss_latency::.switch_cpus.data 59266.638943                       # average overall mshr miss latency
system.cpu.dcache.demand_avg_mshr_miss_latency::total 59266.638943                       # average overall mshr miss latency
system.cpu.dcache.overall_avg_mshr_miss_latency::.switch_cpus.data 59261.983796                       # average overall mshr miss latency
system.cpu.dcache.overall_avg_mshr_miss_latency::total 59261.983796                       # average overall mshr miss latency
system.cpu.dcache.replacements                  32492                       # number of replacements
system.cpu.dcache.ReadReq_hits::.switch_cpus.data      1610342                       # number of ReadReq hits
system.cpu.dcache.ReadReq_hits::total         1610342                       # number of ReadReq hits
system.cpu.dcache.ReadReq_misses::.switch_cpus.data        91048                       # number of ReadReq misses
system.cpu.dcache.ReadReq_misses::total         91048                       # number of ReadReq misses
system.cpu.dcache.ReadReq_miss_latency::.switch_cpus.data   5365298000                       # number of ReadReq miss cycles
system.cpu.dcache.ReadReq_miss_latency::total   5365298000                       # number of ReadReq miss cycles
system.cpu.dcache.ReadReq_accesses::.switch_cpus.data      1701390                       # number of ReadReq accesses(hits+misses)
system.cpu.dcache.ReadReq_accesses::total      1701390                       # number of ReadReq accesses(hits+misses)
system.cpu.dcache.ReadReq_miss_rate::.switch_cpus.data     0.053514                       # miss rate for ReadReq accesses
system.cpu.dcache.ReadReq_miss_rate::total     0.053514                       # miss rate for ReadReq accesses
system.cpu.dcache.ReadReq_avg_miss_latency::.switch_cpus.data 58928.235656                       # average ReadReq miss latency
system.cpu.dcache.ReadReq_avg_miss_latency::total 58928.235656                       # average ReadReq miss latency
system.cpu.dcache.ReadReq_mshr_hits::.switch_cpus.data        66442                       # number of ReadReq MSHR hits
system.cpu.dcache.ReadReq_mshr_hits::total        66442                       # number of ReadReq MSHR hits
system.cpu.dcache.ReadReq_mshr_misses::.switch_cpus.data        24606                       # number of ReadReq MSHR misses
system.cpu.dcache.ReadReq_mshr_misses::total        24606                       # number of ReadReq MSHR misses
system.cpu.dcache.ReadReq_mshr_miss_latency::.switch_cpus.data   1373074000                       # number of ReadReq MSHR miss cycles
system.cpu.dcache.ReadReq_mshr_miss_latency::total   1373074000                       # number of ReadReq MSHR miss cycles
system.cpu.dcache.ReadReq_mshr_miss_rate::.switch_cpus.data     0.014462                       # mshr miss rate for ReadReq accesses
system.cpu.dcache.ReadReq_mshr_miss_rate::total     0.014462                       # mshr miss rate for ReadReq accesses
system.cpu.dcache.ReadReq_avg_mshr_miss_latency::.switch_cpus.data 55802.405917                       # average ReadReq mshr miss latency
system.cpu.dcache.ReadReq_avg_mshr_miss_latency::total 55802.405917                       # average ReadReq mshr miss latency
system.cpu.dcache.WriteReq_hits::.switch_cpus.data       680196                       # number of WriteReq hits
system.cpu.dcache.WriteReq_hits::total         680196                       # number of WriteReq hits
system.cpu.dcache.WriteReq_misses::.switch_cpus.data         7912                       # number of WriteReq misses
system.cpu.dcache.WriteReq_misses::total         7912                       # number of WriteReq misses
system.cpu.dcache.WriteReq_miss_latency::.switch_cpus.data    561544999                       # number of WriteReq miss cycles
system.cpu.dcache.WriteReq_miss_latency::total    561544999                       # number of WriteReq miss cycles
system.cpu.dcache.WriteReq_accesses::.switch_cpus.data       688108                       # number of WriteReq accesses(hits+misses)
system.cpu.dcache.WriteReq_accesses::total       688108                       # number of WriteReq accesses(hits+misses)
system.cpu.dcache.WriteReq_miss_rate::.switch_cpus.data     0.011498                       # miss rate for WriteReq accesses
system.cpu.dcache.WriteReq_miss_rate::total     0.011498                       # miss rate for WriteReq accesses
system.cpu.dcache.WriteReq_avg_miss_latency::.switch_cpus.data 70973.837083                       # average WriteReq miss latency
system.cpu.dcache.WriteReq_avg_miss_latency::total 70973.837083                       # average WriteReq miss latency
system.cpu.dcache.WriteReq_mshr_hits::.switch_cpus.data           19                       # number of WriteReq MSHR hits
system.cpu.dcache.WriteReq_mshr_hits::total           19                       # number of WriteReq MSHR hits
system.cpu.dcache.WriteReq_mshr_misses::.switch_cpus.data         7893                       # number of WriteReq MSHR misses
system.cpu.dcache.WriteReq_mshr_misses::total         7893                       # number of WriteReq MSHR misses
system.cpu.dcache.WriteReq_mshr_miss_latency::.switch_cpus.data    553032499                       # number of WriteReq MSHR miss cycles
system.cpu.dcache.WriteReq_mshr_miss_latency::total    553032499                       # number of WriteReq MSHR miss cycles
system.cpu.dcache.WriteReq_mshr_miss_rate::.switch_cpus.data     0.011471                       # mshr miss rate for WriteReq accesses
system.cpu.dcache.WriteReq_mshr_miss_rate::total     0.011471                       # mshr miss rate for WriteReq accesses
system.cpu.dcache.WriteReq_avg_mshr_miss_latency::.switch_cpus.data 70066.197770                       # average WriteReq mshr miss latency
system.cpu.dcache.WriteReq_avg_mshr_miss_latency::total 70066.197770                       # average WriteReq mshr miss latency
system.cpu.dcache.SoftPFReq_hits::.switch_cpus.data         3130                       # number of SoftPFReq hits
system.cpu.dcache.SoftPFReq_hits::total          3130                       # number of SoftPFReq hits
system.cpu.dcache.SoftPFReq_misses::.switch_cpus.data           62                       # number of SoftPFReq misses
system.cpu.dcache.SoftPFReq_misses::total           62                       # number of SoftPFReq misses
system.cpu.dcache.SoftPFReq_accesses::.switch_cpus.data         3192                       # number of SoftPFReq accesses(hits+misses)
system.cpu.dcache.SoftPFReq_accesses::total         3192                       # number of SoftPFReq accesses(hits+misses)
system.cpu.dcache.SoftPFReq_miss_rate::.switch_cpus.data     0.019424                       # miss rate for SoftPFReq accesses
system.cpu.dcache.SoftPFReq_miss_rate::total     0.019424                       # miss rate for SoftPFReq accesses
system.cpu.dcache.SoftPFReq_mshr_misses::.switch_cpus.data           24                       # number of SoftPFReq MSHR misses
system.cpu.dcache.SoftPFReq_mshr_misses::total           24                       # number of SoftPFReq MSHR misses
system.cpu.dcache.SoftPFReq_mshr_miss_latency::.switch_cpus.data      1271000                       # number of SoftPFReq MSHR miss cycles
system.cpu.dcache.SoftPFReq_mshr_miss_latency::total      1271000                       # number of SoftPFReq MSHR miss cycles
system.cpu.dcache.SoftPFReq_mshr_miss_rate::.switch_cpus.data     0.007519                       # mshr miss rate for SoftPFReq accesses
system.cpu.dcache.SoftPFReq_mshr_miss_rate::total     0.007519                       # mshr miss rate for SoftPFReq accesses
system.cpu.dcache.SoftPFReq_avg_mshr_miss_latency::.switch_cpus.data 52958.333333                       # average SoftPFReq mshr miss latency
system.cpu.dcache.SoftPFReq_avg_mshr_miss_latency::total 52958.333333                       # average SoftPFReq mshr miss latency
system.cpu.dcache.power_state.pwrStateResidencyTicks::UNDEFINED   5032115000                       # Cumulative time (in ticks) in various power states
system.cpu.dcache.tags.tagsinuse                 1024                       # Cycle average of tags in use
system.cpu.dcache.tags.total_refs             2541411                       # Total number of references to valid blocks.
system.cpu.dcache.tags.sampled_refs             33516                       # Sample count of references to valid blocks.
system.cpu.dcache.tags.avg_refs             75.826799                       # Average number of references to valid blocks.
system.cpu.dcache.tags.warmup_cycle                 0                       # Cycle when the warmup percentage was hit.
system.cpu.dcache.tags.occ_blocks::.cpu.data    24.625703                       # Average occupied blocks per requestor
system.cpu.dcache.tags.occ_blocks::.switch_cpus.data   999.374297                       # Average occupied blocks per requestor
system.cpu.dcache.tags.occ_percent::.cpu.data     0.024049                       # Average percentage of cache occupancy
system.cpu.dcache.tags.occ_percent::.switch_cpus.data     0.975951                       # Average percentage of cache occupancy
system.cpu.dcache.tags.occ_percent::total            1                       # Average percentage of cache occupancy
system.cpu.dcache.tags.occ_task_id_blocks::1024         1024                       # Occupied blocks per task id
system.cpu.dcache.tags.age_task_id_blocks_1024::0           85                       # Occupied blocks per task id
system.cpu.dcache.tags.age_task_id_blocks_1024::1          786                       # Occupied blocks per task id
system.cpu.dcache.tags.age_task_id_blocks_1024::2          148                       # Occupied blocks per task id
system.cpu.dcache.tags.age_task_id_blocks_1024::3            5                       # Occupied blocks per task id
system.cpu.dcache.tags.occ_task_id_percent::1024            1                       # Percentage of cache occupancy per task id
system.cpu.dcache.tags.tag_accesses           4817872                       # Number of tag accesses
system.cpu.dcache.tags.data_accesses          4817872                       # Number of data accesses
system.cpu.dcache.tags.power_state.pwrStateResidencyTicks::UNDEFINED   5032115000                       # Cumulative time (in ticks) in various power states
system.cpu.dtb.rdAccesses                           0                       # TLB accesses on read requests
system.cpu.dtb.wrAccesses                           0                       # TLB accesses on write requests
system.cpu.dtb.rdMisses                             0                       # TLB misses on read requests
system.cpu.dtb.wrMisses                             0                       # TLB misses on write requests
system.cpu.dtb.walker.power_state.pwrStateResidencyTicks::UNDEFINED   5032115000                       # Cumulative time (in ticks) in various power states
system.cpu.dtb_walker_cache.blocked_cycles::no_mshrs            0                       # number of cycles access was blocked
system.cpu.dtb_walker_cache.blocked_cycles::no_targets            0                       # number of cycles access was blocked
system.cpu.dtb_walker_cache.blocked::no_mshrs            0                       # number of cycles access was blocked
system.cpu.dtb_walker_cache.blocked::no_targets            0                       # number of cycles access was blocked
system.cpu.dtb_walker_cache.avg_blocked_cycles::no_mshrs          nan                       # average number of cycles each access was blocked
system.cpu.dtb_walker_cache.avg_blocked_cycles::no_targets          nan                       # average number of cycles each access was blocked
system.cpu.dtb_walker_cache.replacements            0                       # number of replacements
system.cpu.dtb_walker_cache.power_state.pwrStateResidencyTicks::UNDEFINED   5032115000                       # Cumulative time (in ticks) in various power states
system.cpu.dtb_walker_cache.tags.tagsinuse            0                       # Cycle average of tags in use
system.cpu.dtb_walker_cache.tags.total_refs            0                       # Total number of references to valid blocks.
system.cpu.dtb_walker_cache.tags.sampled_refs            0                       # Sample count of references to valid blocks.
system.cpu.dtb_walker_cache.tags.avg_refs          nan                       # Average number of references to valid blocks.
system.cpu.dtb_walker_cache.tags.warmup_cycle            0                       # Cycle when the warmup percentage was hit.
system.cpu.dtb_walker_cache.tags.tag_accesses            0                       # Number of tag accesses
system.cpu.dtb_walker_cache.tags.data_accesses            0                       # Number of data accesses
system.cpu.dtb_walker_cache.tags.power_state.pwrStateResidencyTicks::UNDEFINED   5032115000                       # Cumulative time (in ticks) in various power states
system.cpu.icache.demand_hits::.switch_cpus.inst      1438378                       # number of demand (read+write) hits
system.cpu.icache.demand_hits::total          1438378                       # number of demand (read+write) hits
system.cpu.icache.overall_hits::.switch_cpus.inst      1438378                       # number of overall hits
system.cpu.icache.overall_hits::total         1438378                       # number of overall hits
system.cpu.icache.demand_misses::.switch_cpus.inst        28899                       # number of demand (read+write) misses
system.cpu.icache.demand_misses::total          28899                       # number of demand (read+write) misses
system.cpu.icache.overall_misses::.switch_cpus.inst        28899                       # number of overall misses
system.cpu.icache.overall_misses::total         28899                       # number of overall misses
system.cpu.icache.demand_miss_latency::.switch_cpus.inst    990951999                       # number of demand (read+write) miss cycles
system.cpu.icache.demand_miss_latency::total    990951999                       # number of demand (read+write) miss cycles
system.cpu.icache.overall_miss_latency::.switch_cpus.inst    990951999                       # number of overall miss cycles
system.cpu.icache.overall_miss_latency::total    990951999                       # number of overall miss cycles
system.cpu.icache.demand_accesses::.switch_cpus.inst      1467277                       # number of demand (read+write) accesses
system.cpu.icache.demand_accesses::total      1467277                       # number of demand (read+write) accesses
system.cpu.icache.overall_accesses::.switch_cpus.inst      1467277                       # number of overall (read+write) accesses
system.cpu.icache.overall_accesses::total      1467277                       # number of overall (read+write) accesses
system.cpu.icache.demand_miss_rate::.switch_cpus.inst     0.019696                       # miss rate for demand accesses
system.cpu.icache.demand_miss_rate::total     0.019696                       # miss rate for demand accesses
system.cpu.icache.overall_miss_rate::.switch_cpus.inst     0.019696                       # miss rate for overall accesses
system.cpu.icache.overall_miss_rate::total     0.019696                       # miss rate for overall accesses
system.cpu.icache.demand_avg_miss_latency::.switch_cpus.inst 34290.183017                       # average overall miss latency
system.cpu.icache.demand_avg_miss_latency::total 34290.183017                       # average overall miss latency
system.cpu.icache.overall_avg_miss_latency::.switch_cpus.inst 34290.183017                       # average overall miss latency
system.cpu.icache.overall_avg_miss_latency::total 34290.183017                       # average overall miss latency
system.cpu.icache.blocked_cycles::no_mshrs         2378                       # number of cycles access was blocked
system.cpu.icache.blocked_cycles::no_targets            0                       # number of cycles access was blocked
system.cpu.icache.blocked::no_mshrs                50                       # number of cycles access was blocked
system.cpu.icache.blocked::no_targets               0                       # number of cycles access was blocked
system.cpu.icache.avg_blocked_cycles::no_mshrs    47.560000                       # average number of cycles each access was blocked
system.cpu.icache.avg_blocked_cycles::no_targets          nan                       # average number of cycles each access was blocked
system.cpu.icache.writebacks::.writebacks        24457                       # number of writebacks
system.cpu.icache.writebacks::total             24457                       # number of writebacks
system.cpu.icache.demand_mshr_hits::.switch_cpus.inst         4065                       # number of demand (read+write) MSHR hits
system.cpu.icache.demand_mshr_hits::total         4065                       # number of demand (read+write) MSHR hits
system.cpu.icache.overall_mshr_hits::.switch_cpus.inst         4065                       # number of overall MSHR hits
system.cpu.icache.overall_mshr_hits::total         4065                       # number of overall MSHR hits
system.cpu.icache.demand_mshr_misses::.switch_cpus.inst        24834                       # number of demand (read+write) MSHR misses
system.cpu.icache.demand_mshr_misses::total        24834                       # number of demand (read+write) MSHR misses
system.cpu.icache.overall_mshr_misses::.switch_cpus.inst        24834                       # number of overall MSHR misses
system.cpu.icache.overall_mshr_misses::total        24834                       # number of overall MSHR misses
system.cpu.icache.demand_mshr_miss_latency::.switch_cpus.inst    806087999                       # number of demand (read+write) MSHR miss cycles
system.cpu.icache.demand_mshr_miss_latency::total    806087999                       # number of demand (read+write) MSHR miss cycles
system.cpu.icache.overall_mshr_miss_latency::.switch_cpus.inst    806087999                       # number of overall MSHR miss cycles
system.cpu.icache.overall_mshr_miss_latency::total    806087999                       # number of overall MSHR miss cycles
system.cpu.icache.demand_mshr_miss_rate::.switch_cpus.inst     0.016925                       # mshr miss rate for demand accesses
system.cpu.icache.demand_mshr_miss_rate::total     0.016925                       # mshr miss rate for demand accesses
system.cpu.icache.overall_mshr_miss_rate::.switch_cpus.inst     0.016925                       # mshr miss rate for overall accesses
system.cpu.icache.overall_mshr_miss_rate::total     0.016925                       # mshr miss rate for overall accesses
system.cpu.icache.demand_avg_mshr_miss_latency::.switch_cpus.inst 32459.048039                       # average overall mshr miss latency
system.cpu.icache.demand_avg_mshr_miss_latency::total 32459.048039                       # average overall mshr miss latency
system.cpu.icache.overall_avg_mshr_miss_latency::.switch_cpus.inst 32459.048039                       # average overall mshr miss latency
system.cpu.icache.overall_avg_mshr_miss_latency::total 32459.048039                       # average overall mshr miss latency
system.cpu.icache.replacements                  24457                       # number of replacements
system.cpu.icache.ReadReq_hits::.switch_cpus.inst      1438378                       # number of ReadReq hits
system.cpu.icache.ReadReq_hits::total         1438378                       # number of ReadReq hits
system.cpu.icache.ReadReq_misses::.switch_cpus.inst        28899                       # number of ReadReq misses
system.cpu.icache.ReadReq_misses::total         28899                       # number of ReadReq misses
system.cpu.icache.ReadReq_miss_latency::.switch_cpus.inst    990951999                       # number of ReadReq miss cycles
system.cpu.icache.ReadReq_miss_latency::total    990951999                       # number of ReadReq miss cycles
system.cpu.icache.ReadReq_accesses::.switch_cpus.inst      1467277                       # number of ReadReq accesses(hits+misses)
system.cpu.icache.ReadReq_accesses::total      1467277                       # number of ReadReq accesses(hits+misses)
system.cpu.icache.ReadReq_miss_rate::.switch_cpus.inst     0.019696                       # miss rate for ReadReq accesses
system.cpu.icache.ReadReq_miss_rate::total     0.019696                       # miss rate for ReadReq accesses
system.cpu.icache.ReadReq_avg_miss_latency::.switch_cpus.inst 34290.183017                       # average ReadReq miss latency
system.cpu.icache.ReadReq_avg_miss_latency::total 34290.183017                       # average ReadReq miss latency
system.cpu.icache.ReadReq_mshr_hits::.switch_cpus.inst         4065                       # number of ReadReq MSHR hits
system.cpu.icache.ReadReq_mshr_hits::total         4065                       # number of ReadReq MSHR hits
system.cpu.icache.ReadReq_mshr_misses::.switch_cpus.inst        24834                       # number of ReadReq MSHR misses
system.cpu.icache.ReadReq_mshr_misses::total        24834                       # number of ReadReq MSHR misses
system.cpu.icache.ReadReq_mshr_miss_latency::.switch_cpus.inst    806087999                       # number of ReadReq MSHR miss cycles
system.cpu.icache.ReadReq_mshr_miss_latency::total    806087999                       # number of ReadReq MSHR miss cycles
system.cpu.icache.ReadReq_mshr_miss_rate::.switch_cpus.inst     0.016925                       # mshr miss rate for ReadReq accesses
system.cpu.icache.ReadReq_mshr_miss_rate::total     0.016925                       # mshr miss rate for ReadReq accesses
system.cpu.icache.ReadReq_avg_mshr_miss_latency::.switch_cpus.inst 32459.048039                       # average ReadReq mshr miss latency
system.cpu.icache.ReadReq_avg_mshr_miss_latency::total 32459.048039                       # average ReadReq mshr miss latency
system.cpu.icache.power_state.pwrStateResidencyTicks::UNDEFINED   5032115000                       # Cumulative time (in ticks) in various power states
system.cpu.icache.tags.tagsinuse           939.849036                       # Cycle average of tags in use
system.cpu.icache.tags.total_refs             2796781                       # Total number of references to valid blocks.
system.cpu.icache.tags.sampled_refs             25509                       # Sample count of references to valid blocks.
system.cpu.icache.tags.avg_refs            109.638990                       # Average number of references to valid blocks.
system.cpu.icache.tags.warmup_cycle                 0                       # Cycle when the warmup percentage was hit.
system.cpu.icache.tags.occ_blocks::.cpu.inst   196.556920                       # Average occupied blocks per requestor
system.cpu.icache.tags.occ_blocks::.switch_cpus.inst   743.292116                       # Average occupied blocks per requestor
system.cpu.icache.tags.occ_percent::.cpu.inst     0.191950                       # Average percentage of cache occupancy
system.cpu.icache.tags.occ_percent::.switch_cpus.inst     0.725871                       # Average percentage of cache occupancy
system.cpu.icache.tags.occ_percent::total     0.917821                       # Average percentage of cache occupancy
system.cpu.icache.tags.occ_task_id_blocks::1024         1022                       # Occupied blocks per task id
system.cpu.icache.tags.age_task_id_blocks_1024::0           89                       # Occupied blocks per task id
system.cpu.icache.tags.age_task_id_blocks_1024::1          210                       # Occupied blocks per task id
system.cpu.icache.tags.age_task_id_blocks_1024::2          701                       # Occupied blocks per task id
system.cpu.icache.tags.age_task_id_blocks_1024::3           22                       # Occupied blocks per task id
system.cpu.icache.tags.occ_task_id_percent::1024     0.998047                       # Percentage of cache occupancy per task id
system.cpu.icache.tags.tag_accesses           2959387                       # Number of tag accesses
system.cpu.icache.tags.data_accesses          2959387                       # Number of data accesses
system.cpu.icache.tags.power_state.pwrStateResidencyTicks::UNDEFINED   5032115000                       # Cumulative time (in ticks) in various power states
system.cpu.interrupts.clk_domain.clock           8000                       # Clock period in ticks
system.cpu.itb.rdAccesses                           0                       # TLB accesses on read requests
system.cpu.itb.wrAccesses                           0                       # TLB accesses on write requests
system.cpu.itb.rdMisses                             0                       # TLB misses on read requests
system.cpu.itb.wrMisses                             0                       # TLB misses on write requests
system.cpu.itb.walker.power_state.pwrStateResidencyTicks::UNDEFINED   5032115000                       # Cumulative time (in ticks) in various power states
system.cpu.itb_walker_cache.blocked_cycles::no_mshrs            0                       # number of cycles access was blocked
system.cpu.itb_walker_cache.blocked_cycles::no_targets            0                       # number of cycles access was blocked
system.cpu.itb_walker_cache.blocked::no_mshrs            0                       # number of cycles access was blocked
system.cpu.itb_walker_cache.blocked::no_targets            0                       # number of cycles access was blocked
system.cpu.itb_walker_cache.avg_blocked_cycles::no_mshrs          nan                       # average number of cycles each access was blocked
system.cpu.itb_walker_cache.avg_blocked_cycles::no_targets          nan                       # average number of cycles each access was blocked
system.cpu.itb_walker_cache.replacements            0                       # number of replacements
system.cpu.itb_walker_cache.power_state.pwrStateResidencyTicks::UNDEFINED   5032115000                       # Cumulative time (in ticks) in various power states
system.cpu.itb_walker_cache.tags.tagsinuse            0                       # Cycle average of tags in use
system.cpu.itb_walker_cache.tags.total_refs            0                       # Total number of references to valid blocks.
system.cpu.itb_walker_cache.tags.sampled_refs            0                       # Sample count of references to valid blocks.
system.cpu.itb_walker_cache.tags.avg_refs          nan                       # Average number of references to valid blocks.
system.cpu.itb_walker_cache.tags.warmup_cycle            0                       # Cycle when the warmup percentage was hit.
system.cpu.itb_walker_cache.tags.tag_accesses            0                       # Number of tag accesses
system.cpu.itb_walker_cache.tags.data_accesses            0                       # Number of data accesses
system.cpu.itb_walker_cache.tags.power_state.pwrStateResidencyTicks::UNDEFINED   5032115000                       # Cumulative time (in ticks) in various power states
system.cpu.power_state.pwrStateResidencyTicks::OFF   3981567500                       # Cumulative time (in ticks) in various power states
system.cpu.thread_0.numInsts                        0                       # Number of Instructions committed
system.cpu.thread_0.numOps                          0                       # Number of Ops committed
system.cpu.thread_0.numMemRefs                      0                       # Number of Memory References
system.cpu_clk_domain.clock                       500                       # Clock period in ticks
system.cpu_voltage_domain.voltage                   1                       # Voltage in Volts
system.l2.demand_hits::.switch_cpus.inst        17617                       # number of demand (read+write) hits
system.l2.demand_hits::.switch_cpus.data        10952                       # number of demand (read+write) hits
system.l2.demand_hits::total                    28569                       # number of demand (read+write) hits
system.l2.overall_hits::.switch_cpus.inst        17617                       # number of overall hits
system.l2.overall_hits::.switch_cpus.data        10952                       # number of overall hits
system.l2.overall_hits::total                   28569                       # number of overall hits
system.l2.demand_misses::.switch_cpus.inst         7176                       # number of demand (read+write) misses
system.l2.demand_misses::.switch_cpus.data        21540                       # number of demand (read+write) misses
system.l2.demand_misses::total                  28716                       # number of demand (read+write) misses
system.l2.overall_misses::.switch_cpus.inst         7176                       # number of overall misses
system.l2.overall_misses::.switch_cpus.data        21540                       # number of overall misses
system.l2.overall_misses::total                 28716                       # number of overall misses
system.l2.demand_miss_latency::.switch_cpus.inst    582301500                       # number of demand (read+write) miss cycles
system.l2.demand_miss_latency::.switch_cpus.data   1761773500                       # number of demand (read+write) miss cycles
system.l2.demand_miss_latency::total       2344075000                       # number of demand (read+write) miss cycles
system.l2.overall_miss_latency::.switch_cpus.inst    582301500                       # number of overall miss cycles
system.l2.overall_miss_latency::.switch_cpus.data   1761773500                       # number of overall miss cycles
system.l2.overall_miss_latency::total      2344075000                       # number of overall miss cycles
system.l2.demand_accesses::.switch_cpus.inst        24793                       # number of demand (read+write) accesses
system.l2.demand_accesses::.switch_cpus.data        32492                       # number of demand (read+write) accesses
system.l2.demand_accesses::total                57285                       # number of demand (read+write) accesses
system.l2.overall_accesses::.switch_cpus.inst        24793                       # number of overall (read+write) accesses
system.l2.overall_accesses::.switch_cpus.data        32492                       # number of overall (read+write) accesses
system.l2.overall_accesses::total               57285                       # number of overall (read+write) accesses
system.l2.demand_miss_rate::.switch_cpus.inst     0.289437                       # miss rate for demand accesses
system.l2.demand_miss_rate::.switch_cpus.data     0.662932                       # miss rate for demand accesses
system.l2.demand_miss_rate::total            0.501283                       # miss rate for demand accesses
system.l2.overall_miss_rate::.switch_cpus.inst     0.289437                       # miss rate for overall accesses
system.l2.overall_miss_rate::.switch_cpus.data     0.662932                       # miss rate for overall accesses
system.l2.overall_miss_rate::total           0.501283                       # miss rate for overall accesses
system.l2.demand_avg_miss_latency::.switch_cpus.inst 81145.693980                       # average overall miss latency
system.l2.demand_avg_miss_latency::.switch_cpus.data 81790.784587                       # average overall miss latency
system.l2.demand_avg_miss_latency::total 81629.579329                       # average overall miss latency
system.l2.overall_avg_miss_latency::.switch_cpus.inst 81145.693980                       # average overall miss latency
system.l2.overall_avg_miss_latency::.switch_cpus.data 81790.784587                       # average overall miss latency
system.l2.overall_avg_miss_latency::total 81629.579329                       # average overall miss latency
system.l2.blocked_cycles::no_mshrs                  0                       # number of cycles access was blocked
system.l2.blocked_cycles::no_targets                0                       # number of cycles access was blocked
system.l2.blocked::no_mshrs                         0                       # number of cycles access was blocked
system.l2.blocked::no_targets                       0                       # number of cycles access was blocked
system.l2.avg_blocked_cycles::no_mshrs            nan                       # average number of cycles each access was blocked
system.l2.avg_blocked_cycles::no_targets          nan                       # average number of cycles each access was blocked
system.l2.writebacks::.writebacks                6478                       # number of writebacks
system.l2.writebacks::total                      6478                       # number of writebacks
system.l2.demand_mshr_hits::.switch_cpus.inst            3                       # number of demand (read+write) MSHR hits
system.l2.demand_mshr_hits::.switch_cpus.data            1                       # number of demand (read+write) MSHR hits
system.l2.demand_mshr_hits::total                   4                       # number of demand (read+write) MSHR hits
system.l2.overall_mshr_hits::.switch_cpus.inst            3                       # number of overall MSHR hits
system.l2.overall_mshr_hits::.switch_cpus.data            1                       # number of overall MSHR hits
system.l2.overall_mshr_hits::total                  4                       # number of overall MSHR hits
system.l2.demand_mshr_misses::.switch_cpus.inst         7173                       # number of demand (read+write) MSHR misses
system.l2.demand_mshr_misses::.switch_cpus.data        21539                       # number of demand (read+write) MSHR misses
system.l2.demand_mshr_misses::total             28712                       # number of demand (read+write) MSHR misses
system.l2.overall_mshr_misses::.switch_cpus.inst         7173                       # number of overall MSHR misses
system.l2.overall_mshr_misses::.switch_cpus.data        21539                       # number of overall MSHR misses
system.l2.overall_mshr_misses::total            28712                       # number of overall MSHR misses
system.l2.demand_mshr_miss_latency::.switch_cpus.inst    510374500                       # number of demand (read+write) MSHR miss cycles
system.l2.demand_mshr_miss_latency::.switch_cpus.data   1546316500                       # number of demand (read+write) MSHR miss cycles
system.l2.demand_mshr_miss_latency::total   2056691000                       # number of demand (read+write) MSHR miss cycles
system.l2.overall_mshr_miss_latency::.switch_cpus.inst    510374500                       # number of overall MSHR miss cycles
system.l2.overall_mshr_miss_latency::.switch_cpus.data   1546316500                       # number of overall MSHR miss cycles
system.l2.overall_mshr_miss_latency::total   2056691000                       # number of overall MSHR miss cycles
system.l2.demand_mshr_miss_rate::.switch_cpus.inst     0.289316                       # mshr miss rate for demand accesses
system.l2.demand_mshr_miss_rate::.switch_cpus.data     0.662902                       # mshr miss rate for demand accesses
system.l2.demand_mshr_miss_rate::total       0.501213                       # mshr miss rate for demand accesses
system.l2.overall_mshr_miss_rate::.switch_cpus.inst     0.289316                       # mshr miss rate for overall accesses
system.l2.overall_mshr_miss_rate::.switch_cpus.data     0.662902                       # mshr miss rate for overall accesses
system.l2.overall_mshr_miss_rate::total      0.501213                       # mshr miss rate for overall accesses
system.l2.demand_avg_mshr_miss_latency::.switch_cpus.inst 71152.167852                       # average overall mshr miss latency
system.l2.demand_avg_mshr_miss_latency::.switch_cpus.data 71791.471285                       # average overall mshr miss latency
system.l2.demand_avg_mshr_miss_latency::total 71631.756757                       # average overall mshr miss latency
system.l2.overall_avg_mshr_miss_latency::.switch_cpus.inst 71152.167852                       # average overall mshr miss latency
system.l2.overall_avg_mshr_miss_latency::.switch_cpus.data 71791.471285                       # average overall mshr miss latency
system.l2.overall_avg_mshr_miss_latency::total 71631.756757                       # average overall mshr miss latency
system.l2.replacements                          27966                       # number of replacements
system.l2.WritebackDirty_hits::.writebacks        13990                       # number of WritebackDirty hits
system.l2.WritebackDirty_hits::total            13990                       # number of WritebackDirty hits
system.l2.WritebackDirty_accesses::.writebacks        13990                       # number of WritebackDirty accesses(hits+misses)
system.l2.WritebackDirty_accesses::total        13990                       # number of WritebackDirty accesses(hits+misses)
system.l2.WritebackClean_hits::.writebacks        24431                       # number of WritebackClean hits
system.l2.WritebackClean_hits::total            24431                       # number of WritebackClean hits
system.l2.WritebackClean_accesses::.writebacks        24431                       # number of WritebackClean accesses(hits+misses)
system.l2.WritebackClean_accesses::total        24431                       # number of WritebackClean accesses(hits+misses)
system.l2.CleanEvict_mshr_misses::.writebacks           44                       # number of CleanEvict MSHR misses
system.l2.CleanEvict_mshr_misses::total            44                       # number of CleanEvict MSHR misses
system.l2.CleanEvict_mshr_miss_rate::.writebacks          inf                       # mshr miss rate for CleanEvict accesses
[...]
system.switch_cpus.commit.committedInstType_0::SimdCmp         2532      0.02%     80.02% # Class of committed instruction
system.switch_cpus.commit.committedInstType_0::SimdCvt        72874      0.68%     80.69% # Class of committed instruction
system.switch_cpus.commit.committedInstType_0::SimdMisc       101351      0.94%     81.63% # Class of committed instruction
system.switch_cpus.commit.committedInstType_0::SimdMult            0      0.00%     81.63% # Class of committed instruction
system.switch_cpus.commit.committedInstType_0::SimdMultAcc            0      0.00%     81.63% # Class of committed instruction
system.switch_cpus.commit.committedInstType_0::SimdShift         2717      0.03%     81.66% # Class of committed instruction
system.switch_cpus.commit.committedInstType_0::SimdShiftAcc            0      0.00%     81.66% # Class of committed instruction
system.switch_cpus.commit.committedInstType_0::SimdDiv            0      0.00%     81.66% # Class of committed instruction
system.switch_cpus.commit.committedInstType_0::SimdSqrt            0      0.00%     81.66% # Class of committed instruction
system.switch_cpus.commit.committedInstType_0::SimdFloatAdd           11      0.00%     81.66% # Class of committed instruction
system.switch_cpus.commit.committedInstType_0::SimdFloatAlu            0      0.00%     81.66% # Class of committed instruction
system.switch_cpus.commit.committedInstType_0::SimdFloatCmp            0      0.00%     81.66% # Class of committed instruction
system.switch_cpus.commit.committedInstType_0::SimdFloatCvt           44      0.00%     81.66% # Class of committed instruction
system.switch_cpus.commit.committedInstType_0::SimdFloatDiv           30      0.00%     81.66% # Class of committed instruction
system.switch_cpus.commit.committedInstType_0::SimdFloatMisc            0      0.00%     81.66% # Class of committed instruction
system.switch_cpus.commit.committedInstType_0::SimdFloatMult            8      0.00%     81.66% # Class of committed instruction
system.switch_cpus.commit.committedInstType_0::SimdFloatMultAcc            0      0.00%     81.66% # Class of committed instruction
system.switch_cpus.commit.committedInstType_0::SimdFloatSqrt            0      0.00%     81.66% # Class of committed instruction
system.switch_cpus.commit.committedInstType_0::SimdReduceAdd            0      0.00%     81.66% # Class of committed instruction
system.switch_cpus.commit.committedInstType_0::SimdReduceAlu            0      0.00%     81.66% # Class of committed instruction
system.switch_cpus.commit.committedInstType_0::SimdReduceCmp            0      0.00%     81.66% # Class of committed instruction
system.switch_cpus.commit.committedInstType_0::SimdFloatReduceAdd            0      0.00%     81.66% # Class of committed instruction
system.switch_cpus.commit.committedInstType_0::SimdFloatReduceCmp            0      0.00%     81.66% # Class of committed instruction
system.switch_cpus.commit.committedInstType_0::SimdAes            0      0.00%     81.66% # Class of committed instruction
system.switch_cpus.commit.committedInstType_0::SimdAesMix            0      0.00%     81.66% # Class of committed instruction
system.switch_cpus.commit.committedInstType_0::SimdSha1Hash            0      0.00%     81.66% # Class of committed instruction
system.switch_cpus.commit.committedInstType_0::SimdSha1Hash2            0      0.00%     81.66% # Class of committed instruction
system.switch_cpus.commit.committedInstType_0::SimdSha256Hash            0      0.00%     81.66% # Class of committed instruction
system.switch_cpus.commit.committedInstType_0::SimdSha256Hash2            0      0.00%     81.66% # Class of committed instruction
system.switch_cpus.commit.committedInstType_0::SimdShaSigma2            0      0.00%     81.66% # Class of committed instruction
system.switch_cpus.commit.committedInstType_0::SimdShaSigma3            0      0.00%     81.66% # Class of committed instruction
system.switch_cpus.commit.committedInstType_0::SimdPredAlu            0      0.00%     81.66% # Class of committed instruction
system.switch_cpus.commit.committedInstType_0::MemRead      1198571     11.11%     92.77% # Class of committed instruction
system.switch_cpus.commit.committedInstType_0::MemWrite       645149      5.98%     98.75% # Class of committed instruction
system.switch_cpus.commit.committedInstType_0::FloatMemRead        92311      0.86%     99.61% # Class of committed instruction
system.switch_cpus.commit.committedInstType_0::FloatMemWrite        42292      0.39%    100.00% # Class of committed instruction
system.switch_cpus.commit.committedInstType_0::IprAccess            0      0.00%    100.00% # Class of committed instruction
system.switch_cpus.commit.committedInstType_0::InstPrefetch            0      0.00%    100.00% # Class of committed instruction
system.switch_cpus.commit.committedInstType_0::total     10786153                       # Class of committed instruction
system.switch_cpus.commit.commitEligibleSamples       558216                       # number cycles where commit BW limit reached
system.switch_cpus.decode.idleCycles          1753407                       # Number of cycles decode is idle
system.switch_cpus.decode.blockedCycles       2696330                       # Number of cycles decode is blocked
system.switch_cpus.decode.runCycles           2457356                       # Number of cycles decode is running
system.switch_cpus.decode.unblockCycles        322452                       # Number of cycles decode is unblocking
system.switch_cpus.decode.squashCycles         167702                       # Number of cycles decode is squashing
system.switch_cpus.decode.branchResolved       758780                       # Number of times decode resolved a  branch
system.switch_cpus.decode.branchMispred         16876                       # Number of times decode detected a branch misprediction
system.switch_cpus.decode.decodedInsts       18764820                       # Number of instructions handled by decode
system.switch_cpus.decode.squashedInsts         71141                       # Number of squashed instructions handled by decode
system.switch_cpus.dtb.rdAccesses             1869534                       # TLB accesses on read requests
system.switch_cpus.dtb.wrAccesses              871684                       # TLB accesses on write requests
system.switch_cpus.dtb.rdMisses                  3385                       # TLB misses on read requests
system.switch_cpus.dtb.wrMisses                  1232                       # TLB misses on write requests
system.switch_cpus.dtb.walker.power_state.pwrStateResidencyTicks::UNDEFINED   5032115000                       # Cumulative time (in ticks) in various power states
system.switch_cpus.fetch.icacheStallCycles      2016019                       # Number of cycles fetch is stalled on an Icache miss
system.switch_cpus.fetch.insts               10387741                       # Number of instructions fetch has processed
system.switch_cpus.fetch.branches             2197016                       # Number of branches that fetch encountered
system.switch_cpus.fetch.predictedBranches      1017455                       # Number of branches that fetch has predicted taken
system.switch_cpus.fetch.cycles               5159187                       # Number of cycles fetch has run and was not squashing or blocked
system.switch_cpus.fetch.squashCycles          368092                       # Number of cycles fetch has spent squashing
system.switch_cpus.fetch.miscStallCycles         4109                       # Number of cycles fetch has spent waiting on interrupts,or bad addresses, or out of MSHRs
system.switch_cpus.fetch.pendingTrapStallCycles        33679                       # Number of stall cycles due to pending traps
system.switch_cpus.fetch.pendingQuiesceStallCycles           37                       # Number of stall cycles due to pending quiesce instructions
system.switch_cpus.fetch.icacheWaitRetryStallCycles          182                       # Number of stall cycles due to full MSHR
system.switch_cpus.fetch.cacheLines           1467280                       # Number of cache lines fetched
system.switch_cpus.fetch.icacheSquashes         55696                       # Number of outstanding Icache misses that were squashed
system.switch_cpus.fetch.nisnDist::samples      7397259                       # Number of instructions fetched each cycle (Total)
system.switch_cpus.fetch.nisnDist::mean      2.713526                       # Number of instructions fetched each cycle (Total)
system.switch_cpus.fetch.nisnDist::stdev     3.447157                       # Number of instructions fetched each cycle (Total)
system.switch_cpus.fetch.nisnDist::underflows            0      0.00%      0.00% # Number of instructions fetched each cycle (Total)
system.switch_cpus.fetch.nisnDist::0          4206106     56.86%     56.86% # Number of instructions fetched each cycle (Total)
system.switch_cpus.fetch.nisnDist::1           141325      1.91%     58.77% # Number of instructions fetched each cycle (Total)
system.switch_cpus.fetch.nisnDist::2           153256      2.07%     60.84% # Number of instructions fetched each cycle (Total)
system.switch_cpus.fetch.nisnDist::3           166397      2.25%     63.09% # Number of instructions fetched each cycle (Total)
system.switch_cpus.fetch.nisnDist::4           367231      4.96%     68.06% # Number of instructions fetched each cycle (Total)
system.switch_cpus.fetch.nisnDist::5           225303      3.05%     71.10% # Number of instructions fetched each cycle (Total)
system.switch_cpus.fetch.nisnDist::6           181663      2.46%     73.56% # Number of instructions fetched each cycle (Total)
system.switch_cpus.fetch.nisnDist::7           207612      2.81%     76.36% # Number of instructions fetched each cycle (Total)
system.switch_cpus.fetch.nisnDist::8          1748366     23.64%    100.00% # Number of instructions fetched each cycle (Total)
system.switch_cpus.fetch.nisnDist::overflows            0      0.00%    100.00% # Number of instructions fetched each cycle (Total)
system.switch_cpus.fetch.nisnDist::min_value            0                       # Number of instructions fetched each cycle (Total)
system.switch_cpus.fetch.nisnDist::max_value            8                       # Number of instructions fetched each cycle (Total)
system.switch_cpus.fetch.nisnDist::total      7397259                       # Number of instructions fetched each cycle (Total)
system.switch_cpus.fetch.branchRate          0.275898                       # Number of branch fetches per cycle
system.switch_cpus.fetch.rate                1.304479                       # Number of inst fetches per cycle
system.switch_cpus.itb.rdAccesses                   0                       # TLB accesses on read requests
system.switch_cpus.itb.wrAccesses             1473030                       # TLB accesses on write requests
system.switch_cpus.itb.rdMisses                     0                       # TLB misses on read requests
system.switch_cpus.itb.wrMisses                  7183                       # TLB misses on write requests
system.switch_cpus.itb.walker.power_state.pwrStateResidencyTicks::UNDEFINED   5032115000                       # Cumulative time (in ticks) in various power states
system.switch_cpus.lsq0.forwLoads              160755                       # Number of loads that had data forwarded from stores
system.switch_cpus.lsq0.squashedLoads          834009                       # Number of loads squashed
system.switch_cpus.lsq0.ignoredResponses         2346                       # Number of memory responses ignored because the instruction is squashed
system.switch_cpus.lsq0.memOrderViolation          968                       # Number of memory ordering violations
system.switch_cpus.lsq0.squashedStores         338456                       # Number of stores squashed
system.switch_cpus.lsq0.rescheduledLoads         2867                       # Number of loads that were rescheduled
system.switch_cpus.lsq0.blockedByCache           2319                       # Number of times an access to memory failed due to the cache being blocked
system.switch_cpus.power_state.pwrStateResidencyTicks::OFF   5032115000                       # Cumulative time (in ticks) in various power states
system.switch_cpus.rename.squashCycles         167702                       # Number of cycles rename is squashing
system.switch_cpus.rename.idleCycles          1936664                       # Number of cycles rename is idle
system.switch_cpus.rename.blockCycles         1900481                       # Number of cycles rename is blocking
system.switch_cpus.rename.serializeStallCycles        16985                       # count of cycles rename stalledfor serializing inst
system.switch_cpus.rename.runCycles           2576520                       # Number of cycles rename is running
system.switch_cpus.rename.unblockCycles        798889                       # Number of cycles rename is unblocking
system.switch_cpus.rename.renamedInsts       18063973                       # Number of instructions processed by rename
system.switch_cpus.rename.ROBFullEvents         21605                       # Number of times rename has blocked due to ROB full
system.switch_cpus.rename.IQFullEvents         337168                       # Number of times rename has blocked due to IQ full
system.switch_cpus.rename.LQFullEvents          32383                       # Number of times rename has blocked due to LQ full
system.switch_cpus.rename.SQFullEvents         391843                       # Number of times rename has blocked due to SQ full
system.switch_cpus.rename.fullRegistersEvents           28                       # Number of times there has been no free registers
system.switch_cpus.rename.renamedOperands     20491116                       # Number of destination operands rename has renamed
system.switch_cpus.rename.lookups            45174045                       # Number of register rename lookups that rename has made
system.switch_cpus.rename.intLookups         26464910                       # Number of integer rename lookups
system.switch_cpus.rename.fpLookups           1224421                       # Number of floating rename lookups
system.switch_cpus.rename.committedMaps      12664975                       # Number of HB maps that are committed
system.switch_cpus.rename.undoneMaps          7826135                       # Number of HB maps that are undone due to squashing
system.switch_cpus.rename.serializing            1064                       # count of serializing insts renamed
system.switch_cpus.rename.tempSerializing         1057                       # count of temporary serializing insts renamed
system.switch_cpus.rename.skidInsts           1076645                       # count of insts added to the skid buffer
system.switch_cpus.rob.reads                 22679586                       # The number of ROB reads
system.switch_cpus.rob.writes                34273341                       # The number of ROB writes
system.switch_cpus.thread_0.numInsts          5628199                       # Number of Instructions committed
system.switch_cpus.thread_0.numOps           10786153                       # Number of Ops committed
system.switch_cpus.thread_0.numMemRefs              0                       # Number of Memory References
system.tol2bus.trans_dist::ReadResp             49462                       # Transaction distribution
system.tol2bus.trans_dist::WritebackDirty        20468                       # Transaction distribution
system.tol2bus.trans_dist::WritebackClean        24457                       # Transaction distribution
system.tol2bus.trans_dist::CleanEvict           39990                       # Transaction distribution
system.tol2bus.trans_dist::UpgradeReq              31                       # Transaction distribution
system.tol2bus.trans_dist::UpgradeResp             31                       # Transaction distribution
system.tol2bus.trans_dist::ReadExReq             7863                       # Transaction distribution
system.tol2bus.trans_dist::ReadExResp            7863                       # Transaction distribution
system.tol2bus.trans_dist::ReadCleanReq         24834                       # Transaction distribution
system.tol2bus.trans_dist::ReadSharedReq        24629                       # Transaction distribution
system.tol2bus.pkt_count_system.cpu.icache.mem_side_port::system.l2.cpu_side_port        74083                       # Packet count per connected requestor and responder (bytes)
system.tol2bus.pkt_count_system.cpu.dcache.mem_side_port::system.l2.cpu_side_port        97538                       # Packet count per connected requestor and responder (bytes)
system.tol2bus.pkt_count::total                171621                       # Packet count per connected requestor and responder (bytes)
system.tol2bus.pkt_size_system.cpu.icache.mem_side_port::system.l2.cpu_side_port      3151936                       # Cumulative packet size per connected requestor and responder (bytes)
system.tol2bus.pkt_size_system.cpu.dcache.mem_side_port::system.l2.cpu_side_port      2974848                       # Cumulative packet size per connected requestor and responder (bytes)
system.tol2bus.pkt_size::total                6126784                       # Cumulative packet size per connected requestor and responder (bytes)
system.tol2bus.snoops                           28007                       # Total snoops (count)
system.tol2bus.snoopTraffic                    417216                       # Total snoop traffic (bytes)
system.tol2bus.snoop_fanout::samples            85323                       # Request fanout histogram
system.tol2bus.snoop_fanout::mean            0.016303                       # Request fanout histogram
system.tol2bus.snoop_fanout::stdev           0.126638                       # Request fanout histogram
system.tol2bus.snoop_fanout::underflows             0      0.00%      0.00% # Request fanout histogram
system.tol2bus.snoop_fanout::0                  83932     98.37%     98.37% # Request fanout histogram
system.tol2bus.snoop_fanout::1                   1391      1.63%    100.00% # Request fanout histogram
system.tol2bus.snoop_fanout::2                      0      0.00%    100.00% # Request fanout histogram
system.tol2bus.snoop_fanout::3                      0      0.00%    100.00% # Request fanout histogram
system.tol2bus.snoop_fanout::4                      0      0.00%    100.00% # Request fanout histogram
system.tol2bus.snoop_fanout::overflows              0      0.00%    100.00% # Request fanout histogram
system.tol2bus.snoop_fanout::min_value              0                       # Request fanout histogram
system.tol2bus.snoop_fanout::max_value              1                       # Request fanout histogram
system.tol2bus.snoop_fanout::total              85323                       # Request fanout histogram
system.tol2bus.power_state.pwrStateResidencyTicks::UNDEFINED   5032115000                       # Cumulative time (in ticks) in various power states
system.tol2bus.reqLayer0.occupancy           95600000                       # Layer occupancy (ticks)
system.tol2bus.reqLayer0.utilization              2.4                       # Layer utilization (%)
system.tol2bus.respLayer0.occupancy          37257983                       # Layer occupancy (ticks)
system.tol2bus.respLayer0.utilization             0.9                       # Layer utilization (%)
system.tol2bus.respLayer1.occupancy          48760486                       # Layer occupancy (ticks)
system.tol2bus.respLayer1.utilization             1.2                       # Layer utilization (%)
system.voltage_domain.voltage                       1                       # Voltage in Volts

---------- End Simulation Statistics   ----------
