
---------- Begin Simulation Statistics ----------
final_tick                               128950767500                       # Number of ticks from beginning of simulation (restored from checkpoints and never reset)
host_inst_rate                                  34259                       # Simulator instruction rate (inst/s)
host_mem_usage                                8546468                       # Number of bytes of host memory used
host_op_rate                                    68006                       # Simulator op (including micro ops) rate (op/s)
host_seconds                                   321.08                       # Real time elapsed on the host
host_tick_rate                              398171068                       # Simulator tick rate (ticks/s)
sim_freq                                 1000000000000                       # Frequency of simulated ticks
sim_insts                                    11000001                       # Number of instructions simulated
sim_ops                                      21835411                       # Number of ops (including micro ops) simulated
sim_seconds                                  0.127845                       # Number of seconds simulated
sim_ticks                                127844588000                       # Number of ticks simulated
system.cpu.committedInsts                           0                       # Number of instructions committed
system.cpu.committedOps                             0                       # Number of ops (including micro ops) committed
system.cpu.idle_fraction                            0                       # Percentage of idle cycles
system.cpu.not_idle_fraction                        1                       # Percentage of non-idle cycles
system.cpu.numCycles                                0                       # number of cpu cycles simulated
system.cpu.numWorkItemsCompleted                    0                       # number of work items this cpu completed
system.cpu.numWorkItemsStarted                      0                       # number of work items this cpu started
system.cpu.num_busy_cycles                          0                       # Number of busy cycles
system.cpu.num_conditional_control_insts            0                       # number of instructions that are conditional controls
system.cpu.num_fp_alu_accesses                      0                       # Number of float alu accesses
system.cpu.num_fp_insts                             0                       # number of float instructions
system.cpu.num_fp_register_reads                    0                       # number of times the floating registers were read
system.cpu.num_fp_register_writes                   0                       # number of times the floating registers were written
system.cpu.num_func_calls                           0                       # number of times a function call or return occured
system.cpu.num_idle_cycles                          0                       # Number of idle cycles
system.cpu.num_int_alu_accesses                     0                       # Number of integer alu accesses
system.cpu.num_int_insts                            0                       # number of integer instructions
system.cpu.num_int_register_reads                   0                       # number of times the integer registers were read
system.cpu.num_int_register_writes                  0                       # number of times the integer registers were written
system.cpu.num_load_insts                           0                       # Number of load instructions
system.cpu.num_mem_refs                             0                       # number of memory refs
system.cpu.num_store_insts                          0                       # Number of store instructions
system.cpu.num_vec_alu_accesses                     0                       # Number of vector alu accesses
system.cpu.num_vec_insts                            0                       # number of vector instructions
system.cpu.num_vec_register_reads                   0                       # number of times the vector registers were read
system.cpu.num_vec_register_writes                  0                       # number of times the vector registers were written
system.cpu.op_class::No_OpClass                     0                       # Class of executed instruction
system.cpu.op_class::IntAlu                         0                       # Class of executed instruction
system.cpu.op_class::IntMult                        0                       # Class of executed instruction
system.cpu.op_class::IntDiv                         0                       # Class of executed instruction
system.cpu.op_class::FloatAdd                       0                       # Class of executed instruction
system.cpu.op_class::FloatCmp                       0                       # Class of executed instruction
system.cpu.op_class::FloatCvt                       0                       # Class of executed instruction
system.cpu.op_class::FloatMult                      0                       # Class of executed instruction
system.cpu.op_class::FloatMultAcc                   0                       # Class of executed instruction
system.cpu.op_class::FloatDiv                       0                       # Class of executed instruction
system.cpu.op_class::FloatMisc                      0                       # Class of executed instruction
system.cpu.op_class::FloatSqrt                      0                       # Class of executed instruction
system.cpu.op_class::SimdAdd                        0                       # Class of executed instruction
system.cpu.op_class::SimdAddAcc                     0                       # Class of executed instruction
system.cpu.op_class::SimdAlu                        0                       # Class of executed instruction
system.cpu.op_class::SimdCmp                        0                       # Class of executed instruction
system.cpu.op_class::SimdCvt                        0                       # Class of executed instruction
system.cpu.op_class::SimdMisc                       0                       # Class of executed instruction
system.cpu.op_class::SimdMult                       0                       # Class of executed instruction
system.cpu.op_class::SimdMultAcc                    0                       # Class of executed instruction
system.cpu.op_class::SimdShift                      0                       # Class of executed instruction
system.cpu.op_class::SimdShiftAcc                   0                       # Class of executed instruction
system.cpu.op_class::SimdDiv                        0                       # Class of executed instruction
system.cpu.op_class::SimdSqrt                       0                       # Class of executed instruction
system.cpu.op_class::SimdFloatAdd                   0                       # Class of executed instruction
system.cpu.op_class::SimdFloatAlu                   0                       # Class of executed instruction
system.cpu.op_class::SimdFloatCmp                   0                       # Class of executed instruction
system.cpu.op_class::SimdFloatCvt                   0                       # Class of executed instruction
system.cpu.op_class::SimdFloatDiv                   0                       # Class of executed instruction
system.cpu.op_class::SimdFloatMisc                  0                       # Class of executed instruction
system.cpu.op_class::SimdFloatMult                  0                       # Class of executed instruction
system.cpu.op_class::SimdFloatMultAcc               0                       # Class of executed instruction
system.cpu.op_class::SimdFloatSqrt                  0                       # Class of executed instruction
system.cpu.op_class::SimdReduceAdd                  0                       # Class of executed instruction
system.cpu.op_class::SimdReduceAlu                  0                       # Class of executed instruction
system.cpu.op_class::SimdReduceCmp                  0                       # Class of executed instruction
system.cpu.op_class::SimdFloatReduceAdd             0                       # Class of executed instruction
system.cpu.op_class::SimdFloatReduceCmp             0                       # Class of executed instruction
system.cpu.op_class::SimdAes                        0                       # Class of executed instruction
system.cpu.op_class::SimdAesMix                     0                       # Class of executed instruction
system.cpu.op_class::SimdSha1Hash                   0                       # Class of executed instruction
system.cpu.op_class::SimdSha1Hash2                  0                       # Class of executed instruction
system.cpu.op_class::SimdSha256Hash                 0                       # Class of executed instruction
system.cpu.op_class::SimdSha256Hash2                0                       # Class of executed instruction
system.cpu.op_class::SimdShaSigma2                  0                       # Class of executed instruction
system.cpu.op_class::SimdShaSigma3                  0                       # Class of executed instruction
system.cpu.op_class::SimdPredAlu                    0                       # Class of executed instruction
system.cpu.op_class::MemRead                        0                       # Class of executed instruction
system.cpu.op_class::MemWrite                       0                       # Class of executed instruction
system.cpu.op_class::FloatMemRead                   0                       # Class of executed instruction
system.cpu.op_class::FloatMemWrite                  0                       # Class of executed instruction
system.cpu.op_class::IprAccess                      0                       # Class of executed instruction
system.cpu.op_class::InstPrefetch                   0                       # Class of executed instruction
system.cpu.op_class::total                          0                       # Class of executed instruction
system.cpu.workload.numSyscalls                     0                       # Number of system calls
system.membus.snoop_filter.hit_multi_requests            0                       # Number of requests hitting in the snoop filter with multiple (>1) holders of the requested data.
system.membus.snoop_filter.hit_multi_snoops            0                       # Number of snoops hitting in the snoop filter with multiple (>1) holders of the requested data.
system.membus.snoop_filter.hit_single_requests      1410418                       # Number of requests hitting in the snoop filter with a single holder of the requested data.
system.membus.snoop_filter.hit_single_snoops            0                       # Number of snoops hitting in the snoop filter with a single holder of the requested data.
system.membus.snoop_filter.tot_requests       2825013                       # Total number of requests made to the snoop filter.
system.membus.snoop_filter.tot_snoops               0                       # Total number of snoops made to the snoop filter.
system.switch_cpus.cc_regfile_reads           7710357                       # number of cc regfile reads
system.switch_cpus.cc_regfile_writes          6156089                       # number of cc regfile writes
system.switch_cpus.committedInsts            10000000                       # Number of Instructions Simulated
system.switch_cpus.committedOps              19993690                       # Number of Ops (including micro ops) Simulated
system.switch_cpus.cpi                      25.568918                       # CPI: Cycles Per Instruction
system.switch_cpus.cpi_total                25.568918                       # CPI: Total CPI of All Threads
system.switch_cpus.fp_regfile_reads          12042931                       # number of floating regfile reads
system.switch_cpus.fp_regfile_writes               93                       # number of floating regfile writes
system.switch_cpus.idleCycles                    3489                       # Total number of cycles that the CPU has spent unscheduled due to idling
system.switch_cpus.iew.branchMispredicts         8001                       # Number of branch mispredicts detected at execute
system.switch_cpus.iew.exec_branches          1538352                       # Number of branches executed
system.switch_cpus.iew.exec_nop                     0                       # number of nop insts executed
system.switch_cpus.iew.exec_rate             0.083572                       # Inst execution rate
system.switch_cpus.iew.exec_refs             12081370                       # number of memory reference insts executed
system.switch_cpus.iew.exec_stores           12051724                       # Number of stores executed
system.switch_cpus.iew.exec_swp                     0                       # number of swp insts executed
system.switch_cpus.iew.iewBlockCycles          153197                       # Number of cycles IEW is blocking
system.switch_cpus.iew.iewDispLoadInsts         35484                       # Number of dispatched load instructions
system.switch_cpus.iew.iewDispNonSpecInsts            0                       # Number of dispatched non-speculative instructions
system.switch_cpus.iew.iewDispSquashedInsts          294                       # Number of squashed instructions skipped by dispatch
system.switch_cpus.iew.iewDispStoreInsts     12061251                       # Number of dispatched store instructions
system.switch_cpus.iew.iewDispatchedInsts     21443463                       # Number of instructions dispatched to IQ
system.switch_cpus.iew.iewExecLoadInsts         29646                       # Number of load instructions executed
system.switch_cpus.iew.iewExecSquashedInsts        20325                       # Number of squashed instructions skipped in execute
system.switch_cpus.iew.iewExecutedInsts      21368513                       # Number of executed instructions
system.switch_cpus.iew.iewIQFullEvents              7                       # Number of times the IQ has become full, causing a stall
system.switch_cpus.iew.iewIdleCycles                0                       # Number of cycles IEW is idle
system.switch_cpus.iew.iewLSQFullEvents     118084472                       # Number of times the LSQ has become full, causing a stall
system.switch_cpus.iew.iewSquashCycles          28669                       # Number of cycles IEW is squashing
system.switch_cpus.iew.iewUnblockCycles     118084542                       # Number of cycles IEW is unblocking
system.switch_cpus.iew.memOrderViolationEvents           16                       # Number of memory order violations
system.switch_cpus.iew.predictedNotTakenIncorrect         4861                       # Number of branches that were predicted not taken incorrectly
system.switch_cpus.iew.predictedTakenIncorrect         3140                       # Number of branches that were predicted taken incorrectly
system.switch_cpus.iew.wb_consumers          11125428                       # num instructions consuming a value
system.switch_cpus.iew.wb_count              20674750                       # cumulative count of insts written-back
system.switch_cpus.iew.wb_fanout             0.674634                       # average fanout of values written-back
system.switch_cpus.iew.wb_producers           7505590                       # num instructions producing a value
system.switch_cpus.iew.wb_rate               0.080859                       # insts written-back per cycle
system.switch_cpus.iew.wb_sent               21363078                       # cumulative count of insts sent to commit
system.switch_cpus.int_regfile_reads         33454355                       # number of integer regfile reads
system.switch_cpus.int_regfile_writes         7773615                       # number of integer regfile writes
system.switch_cpus.ipc                       0.039110                       # IPC: Instructions Per Cycle
system.switch_cpus.ipc_total                 0.039110                       # IPC: Total IPC of All Threads
system.switch_cpus.iq.FU_type_0::No_OpClass          789      0.00%      0.00% # Type of FU issued
system.switch_cpus.iq.FU_type_0::IntAlu       9299861     43.48%     43.48% # Type of FU issued
system.switch_cpus.iq.FU_type_0::IntMult         1060      0.00%     43.49% # Type of FU issued
system.switch_cpus.iq.FU_type_0::IntDiv             0      0.00%     43.49% # Type of FU issued
system.switch_cpus.iq.FU_type_0::FloatAdd            1      0.00%     43.49% # Type of FU issued
system.switch_cpus.iq.FU_type_0::FloatCmp            0      0.00%     43.49% # Type of FU issued
system.switch_cpus.iq.FU_type_0::FloatCvt            0      0.00%     43.49% # Type of FU issued
system.switch_cpus.iq.FU_type_0::FloatMult            0      0.00%     43.49% # Type of FU issued
system.switch_cpus.iq.FU_type_0::FloatMultAcc            0      0.00%     43.49% # Type of FU issued
system.switch_cpus.iq.FU_type_0::FloatDiv            0      0.00%     43.49% # Type of FU issued
system.switch_cpus.iq.FU_type_0::FloatMisc            0      0.00%     43.49% # Type of FU issued
system.switch_cpus.iq.FU_type_0::FloatSqrt            0      0.00%     43.49% # Type of FU issued
system.switch_cpus.iq.FU_type_0::SimdAdd            0      0.00%     43.49% # Type of FU issued
system.switch_cpus.iq.FU_type_0::SimdAddAcc            0      0.00%     43.49% # Type of FU issued
system.switch_cpus.iq.FU_type_0::SimdAlu           46      0.00%     43.49% # Type of FU issued
system.switch_cpus.iq.FU_type_0::SimdCmp            0      0.00%     43.49% # Type of FU issued
system.switch_cpus.iq.FU_type_0::SimdCvt            0      0.00%     43.49% # Type of FU issued
system.switch_cpus.iq.FU_type_0::SimdMisc            7      0.00%     43.49% # Type of FU issued
system.switch_cpus.iq.FU_type_0::SimdMult            0      0.00%     43.49% # Type of FU issued
system.switch_cpus.iq.FU_type_0::SimdMultAcc            0      0.00%     43.49% # Type of FU issued
system.switch_cpus.iq.FU_type_0::SimdShift            0      0.00%     43.49% # Type of FU issued
system.switch_cpus.iq.FU_type_0::SimdShiftAcc            0      0.00%     43.49% # Type of FU issued
system.switch_cpus.iq.FU_type_0::SimdDiv            0      0.00%     43.49% # Type of FU issued
system.switch_cpus.iq.FU_type_0::SimdSqrt            0      0.00%     43.49% # Type of FU issued
system.switch_cpus.iq.FU_type_0::SimdFloatAdd            0      0.00%     43.49% # Type of FU issued
system.switch_cpus.iq.FU_type_0::SimdFloatAlu            0      0.00%     43.49% # Type of FU issued
system.switch_cpus.iq.FU_type_0::SimdFloatCmp            0      0.00%     43.49% # Type of FU issued
system.switch_cpus.iq.FU_type_0::SimdFloatCvt            0      0.00%     43.49% # Type of FU issued
system.switch_cpus.iq.FU_type_0::SimdFloatDiv            0      0.00%     43.49% # Type of FU issued
system.switch_cpus.iq.FU_type_0::SimdFloatMisc            0      0.00%     43.49% # Type of FU issued
system.switch_cpus.iq.FU_type_0::SimdFloatMult            0      0.00%     43.49% # Type of FU issued
system.switch_cpus.iq.FU_type_0::SimdFloatMultAcc            0      0.00%     43.49% # Type of FU issued
system.switch_cpus.iq.FU_type_0::SimdFloatSqrt            0      0.00%     43.49% # Type of FU issued
system.switch_cpus.iq.FU_type_0::SimdReduceAdd            0      0.00%     43.49% # Type of FU issued
system.switch_cpus.iq.FU_type_0::SimdReduceAlu            0      0.00%     43.49% # Type of FU issued
system.switch_cpus.iq.FU_type_0::SimdReduceCmp            0      0.00%     43.49% # Type of FU issued
system.switch_cpus.iq.FU_type_0::SimdFloatReduceAdd            0      0.00%     43.49% # Type of FU issued
system.switch_cpus.iq.FU_type_0::SimdFloatReduceCmp            0      0.00%     43.49% # Type of FU issued
system.switch_cpus.iq.FU_type_0::SimdAes            0      0.00%     43.49% # Type of FU issued
system.switch_cpus.iq.FU_type_0::SimdAesMix            0      0.00%     43.49% # Type of FU issued
system.switch_cpus.iq.FU_type_0::SimdSha1Hash            0      0.00%     43.49% # Type of FU issued
system.switch_cpus.iq.FU_type_0::SimdSha1Hash2            0      0.00%     43.49% # Type of FU issued
system.switch_cpus.iq.FU_type_0::SimdSha256Hash            0      0.00%     43.49% # Type of FU issued
system.switch_cpus.iq.FU_type_0::SimdSha256Hash2            0      0.00%     43.49% # Type of FU issued
system.switch_cpus.iq.FU_type_0::SimdShaSigma2            0      0.00%     43.49% # Type of FU issued
system.switch_cpus.iq.FU_type_0::SimdShaSigma3            0      0.00%     43.49% # Type of FU issued
system.switch_cpus.iq.FU_type_0::SimdPredAlu            0      0.00%     43.49% # Type of FU issued
system.switch_cpus.iq.FU_type_0::MemRead        34465      0.16%     43.65% # Type of FU issued
system.switch_cpus.iq.FU_type_0::MemWrite         9672      0.05%     43.70% # Type of FU issued
system.switch_cpus.iq.FU_type_0::FloatMemRead           43      0.00%     43.70% # Type of FU issued
system.switch_cpus.iq.FU_type_0::FloatMemWrite     12042895     56.30%    100.00% # Type of FU issued
system.switch_cpus.iq.FU_type_0::IprAccess            0      0.00%    100.00% # Type of FU issued
system.switch_cpus.iq.FU_type_0::InstPrefetch            0      0.00%    100.00% # Type of FU issued
system.switch_cpus.iq.FU_type_0::total       21388839                       # Type of FU issued
system.switch_cpus.iq.fp_alu_accesses        12175615                       # Number of floating point alu accesses
system.switch_cpus.iq.fp_inst_queue_reads     24218680                       # Number of floating instruction queue reads
system.switch_cpus.iq.fp_inst_queue_wakeup_accesses     11357931                       # Number of floating instruction queue wakeup accesses
system.switch_cpus.iq.fp_inst_queue_writes     12772530                       # Number of floating instruction queue writes
system.switch_cpus.iq.fu_busy_cnt              147708                       # FU busy when requested
system.switch_cpus.iq.fu_busy_rate           0.006906                       # FU busy rate (busy events/executed inst)
system.switch_cpus.iq.fu_full::No_OpClass            0      0.00%      0.00% # attempts to use FU when none available
system.switch_cpus.iq.fu_full::IntAlu           15047     10.19%     10.19% # attempts to use FU when none available
system.switch_cpus.iq.fu_full::IntMult              0      0.00%     10.19% # attempts to use FU when none available
system.switch_cpus.iq.fu_full::IntDiv               0      0.00%     10.19% # attempts to use FU when none available
system.switch_cpus.iq.fu_full::FloatAdd             0      0.00%     10.19% # attempts to use FU when none available
system.switch_cpus.iq.fu_full::FloatCmp             0      0.00%     10.19% # attempts to use FU when none available
system.switch_cpus.iq.fu_full::FloatCvt             0      0.00%     10.19% # attempts to use FU when none available
system.switch_cpus.iq.fu_full::FloatMult            0      0.00%     10.19% # attempts to use FU when none available
system.switch_cpus.iq.fu_full::FloatMultAcc            0      0.00%     10.19% # attempts to use FU when none available
system.switch_cpus.iq.fu_full::FloatDiv             0      0.00%     10.19% # attempts to use FU when none available
system.switch_cpus.iq.fu_full::FloatMisc            0      0.00%     10.19% # attempts to use FU when none available
system.switch_cpus.iq.fu_full::FloatSqrt            0      0.00%     10.19% # attempts to use FU when none available
system.switch_cpus.iq.fu_full::SimdAdd              0      0.00%     10.19% # attempts to use FU when none available
system.switch_cpus.iq.fu_full::SimdAddAcc            0      0.00%     10.19% # attempts to use FU when none available
system.switch_cpus.iq.fu_full::SimdAlu              0      0.00%     10.19% # attempts to use FU when none available
system.switch_cpus.iq.fu_full::SimdCmp              0      0.00%     10.19% # attempts to use FU when none available
system.switch_cpus.iq.fu_full::SimdCvt              0      0.00%     10.19% # attempts to use FU when none available
system.switch_cpus.iq.fu_full::SimdMisc             0      0.00%     10.19% # attempts to use FU when none available
system.switch_cpus.iq.fu_full::SimdMult             0      0.00%     10.19% # attempts to use FU when none available
system.switch_cpus.iq.fu_full::SimdMultAcc            0      0.00%     10.19% # attempts to use FU when none available
system.switch_cpus.iq.fu_full::SimdShift            0      0.00%     10.19% # attempts to use FU when none available
system.switch_cpus.iq.fu_full::SimdShiftAcc            0      0.00%     10.19% # attempts to use FU when none available
system.switch_cpus.iq.fu_full::SimdDiv              0      0.00%     10.19% # attempts to use FU when none available
system.switch_cpus.iq.fu_full::SimdSqrt             0      0.00%     10.19% # attempts to use FU when none available
system.switch_cpus.iq.fu_full::SimdFloatAdd            0      0.00%     10.19% # attempts to use FU when none available
system.switch_cpus.iq.fu_full::SimdFloatAlu            0      0.00%     10.19% # attempts to use FU when none available
system.switch_cpus.iq.fu_full::SimdFloatCmp            0      0.00%     10.19% # attempts to use FU when none available
system.switch_cpus.iq.fu_full::SimdFloatCvt            0      0.00%     10.19% # attempts to use FU when none available
system.switch_cpus.iq.fu_full::SimdFloatDiv            0      0.00%     10.19% # attempts to use FU when none available
system.switch_cpus.iq.fu_full::SimdFloatMisc            0      0.00%     10.19% # attempts to use FU when none available
system.switch_cpus.iq.fu_full::SimdFloatMult            0      0.00%     10.19% # attempts to use FU when none available
system.switch_cpus.iq.fu_full::SimdFloatMultAcc            0      0.00%     10.19% # attempts to use FU when none available
system.switch_cpus.iq.fu_full::SimdFloatSqrt            0      0.00%     10.19% # attempts to use FU when none available
system.switch_cpus.iq.fu_full::SimdReduceAdd            0      0.00%     10.19% # attempts to use FU when none available
system.switch_cpus.iq.fu_full::SimdReduceAlu            0      0.00%     10.19% # attempts to use FU when none available
system.switch_cpus.iq.fu_full::SimdReduceCmp            0      0.00%     10.19% # attempts to use FU when none available
system.switch_cpus.iq.fu_full::SimdFloatReduceAdd            0      0.00%     10.19% # attempts to use FU when none available
system.switch_cpus.iq.fu_full::SimdFloatReduceCmp            0      0.00%     10.19% # attempts to use FU when none available
system.switch_cpus.iq.fu_full::SimdAes              0      0.00%     10.19% # attempts to use FU when none available
system.switch_cpus.iq.fu_full::SimdAesMix            0      0.00%     10.19% # attempts to use FU when none available
system.switch_cpus.iq.fu_full::SimdSha1Hash            0      0.00%     10.19% # attempts to use FU when none available
system.switch_cpus.iq.fu_full::SimdSha1Hash2            0      0.00%     10.19% # attempts to use FU when none available
system.switch_cpus.iq.fu_full::SimdSha256Hash            0      0.00%     10.19% # attempts to use FU when none available
system.switch_cpus.iq.fu_full::SimdSha256Hash2            0      0.00%     10.19% # attempts to use FU when none available
system.switch_cpus.iq.fu_full::SimdShaSigma2            0      0.00%     10.19% # attempts to use FU when none available
system.switch_cpus.iq.fu_full::SimdShaSigma3            0      0.00%     10.19% # attempts to use FU when none available
system.switch_cpus.iq.fu_full::SimdPredAlu            0      0.00%     10.19% # attempts to use FU when none available
system.switch_cpus.iq.fu_full::MemRead             15      0.01%     10.20% # attempts to use FU when none available
system.switch_cpus.iq.fu_full::MemWrite            24      0.02%     10.21% # attempts to use FU when none available
system.switch_cpus.iq.fu_full::FloatMemRead            4      0.00%     10.22% # attempts to use FU when none available
system.switch_cpus.iq.fu_full::FloatMemWrite       132618     89.78%    100.00% # attempts to use FU when none available
system.switch_cpus.iq.fu_full::IprAccess            0      0.00%    100.00% # attempts to use FU when none available
system.switch_cpus.iq.fu_full::InstPrefetch            0      0.00%    100.00% # attempts to use FU when none available
system.switch_cpus.iq.int_alu_accesses        9360143                       # Number of integer alu accesses
system.switch_cpus.iq.int_inst_queue_reads    274396335                       # Number of integer instruction queue reads
system.switch_cpus.iq.int_inst_queue_wakeup_accesses      9316819                       # Number of integer instruction queue wakeup accesses
system.switch_cpus.iq.int_inst_queue_writes     10120716                       # Number of integer instruction queue writes
system.switch_cpus.iq.iqInstsAdded           21443463                       # Number of instructions added to the IQ (excludes non-spec)
system.switch_cpus.iq.iqInstsIssued          21388839                       # Number of instructions issued
system.switch_cpus.iq.iqSquashedInstsExamined      1449767                       # Number of squashed instructions iterated over during squash; mainly for profiling
system.switch_cpus.iq.iqSquashedInstsIssued         3943                       # Number of squashed instructions issued
system.switch_cpus.iq.iqSquashedOperandsExamined      2994004                       # Number of squashed operands that are examined and possibly removed from graph
system.switch_cpus.iq.issued_per_cycle::samples    255685687                       # Number of insts issued each cycle
system.switch_cpus.iq.issued_per_cycle::mean     0.083653                       # Number of insts issued each cycle
system.switch_cpus.iq.issued_per_cycle::stdev     0.421451                       # Number of insts issued each cycle
system.switch_cpus.iq.issued_per_cycle::underflows            0      0.00%      0.00% # Number of insts issued each cycle
system.switch_cpus.iq.issued_per_cycle::0    240988560     94.25%     94.25% # Number of insts issued each cycle
system.switch_cpus.iq.issued_per_cycle::1     11565181      4.52%     98.78% # Number of insts issued each cycle
system.switch_cpus.iq.issued_per_cycle::2      1219530      0.48%     99.25% # Number of insts issued each cycle
system.switch_cpus.iq.issued_per_cycle::3       735374      0.29%     99.54% # Number of insts issued each cycle
system.switch_cpus.iq.issued_per_cycle::4      1002580      0.39%     99.93% # Number of insts issued each cycle
system.switch_cpus.iq.issued_per_cycle::5        51850      0.02%     99.95% # Number of insts issued each cycle
system.switch_cpus.iq.issued_per_cycle::6        18890      0.01%     99.96% # Number of insts issued each cycle
system.switch_cpus.iq.issued_per_cycle::7        34210      0.01%     99.97% # Number of insts issued each cycle
system.switch_cpus.iq.issued_per_cycle::8        69512      0.03%    100.00% # Number of insts issued each cycle
system.switch_cpus.iq.issued_per_cycle::overflows            0      0.00%    100.00% # Number of insts issued each cycle
system.switch_cpus.iq.issued_per_cycle::min_value            0                       # Number of insts issued each cycle
system.switch_cpus.iq.issued_per_cycle::max_value            8                       # Number of insts issued each cycle
system.switch_cpus.iq.issued_per_cycle::total    255685687                       # Number of insts issued each cycle
system.switch_cpus.iq.rate                   0.083652                       # Inst issue rate
system.switch_cpus.iq.vec_alu_accesses              0                       # Number of vector alu accesses
system.switch_cpus.iq.vec_inst_queue_reads            0                       # Number of vector instruction queue reads
system.switch_cpus.iq.vec_inst_queue_wakeup_accesses            0                       # Number of vector instruction queue wakeup accesses
system.switch_cpus.iq.vec_inst_queue_writes            0                       # Number of vector instruction queue writes
system.switch_cpus.memDep0.conflictingLoads          151                       # Number of conflicting loads.
system.switch_cpus.memDep0.conflictingStores         2226                       # Number of conflicting stores.
system.switch_cpus.memDep0.insertedLoads        35484                       # Number of loads inserted to the mem dependence unit.
system.switch_cpus.memDep0.insertedStores     12061251                       # Number of stores inserted to the mem dependence unit.
system.switch_cpus.misc_regfile_reads        15167481                       # number of misc regfile reads
system.switch_cpus.numCycles                255689176                       # number of cpu cycles simulated
system.switch_cpus.numWorkItemsCompleted            0                       # number of work items this cpu completed
system.switch_cpus.numWorkItemsStarted              0                       # number of work items this cpu started
system.switch_cpus.timesIdled                      30                       # Number of times that the entire CPU went into an idle state and unscheduled itself
system.tol2bus.snoop_filter.hit_multi_requests            0                       # Number of requests hitting in the snoop filter with multiple (>1) holders of the requested data.
system.tol2bus.snoop_filter.hit_multi_snoops            0                       # Number of snoops hitting in the snoop filter with multiple (>1) holders of the requested data.
system.tol2bus.snoop_filter.hit_single_requests      1414651                       # Number of requests hitting in the snoop filter with a single holder of the requested data.
system.tol2bus.snoop_filter.hit_single_snoops          843                       # Number of snoops hitting in the snoop filter with a single holder of the requested data.
system.tol2bus.snoop_filter.tot_requests      2829327                       # Total number of requests made to the snoop filter.
system.tol2bus.snoop_filter.tot_snoops            843                       # Total number of snoops made to the snoop filter.
system.clk_domain.clock                          1000                       # Clock period in ticks
system.cpu.branchPred.lookups                       0                       # Number of BP lookups
system.cpu.branchPred.condPredicted                 0                       # Number of conditional branches predicted
system.cpu.branchPred.condIncorrect                 0                       # Number of conditional branches incorrect
system.cpu.branchPred.BTBLookups                    0                       # Number of BTB lookups
system.cpu.branchPred.BTBHits                       0                       # Number of BTB hits
system.cpu.branchPred.BTBHitPct                   nan                       # BTB Hit Percentage
system.cpu.branchPred.RASUsed                       0                       # Number of times the RAS was used to get a target.
system.cpu.branchPred.RASIncorrect                  0                       # Number of incorrect RAS predictions.
system.cpu.branchPred.indirectLookups               0                       # Number of indirect predictor lookups.
system.cpu.branchPred.indirectHits                  0                       # Number of indirect target hits.
system.cpu.branchPred.indirectMisses                0                       # Number of indirect misses.
system.cpu.branchPred.indirectMispredicted            0                       # Number of mispredicted indirect branches.
system.cpu.dcache.demand_hits::.switch_cpus.data      9936331                       # number of demand (read+write) hits
system.cpu.dcache.demand_hits::total          9936331                       # number of demand (read+write) hits
system.cpu.dcache.overall_hits::.switch_cpus.data      9936331                       # number of overall hits
system.cpu.dcache.overall_hits::total         9936331                       # number of overall hits
system.cpu.dcache.demand_misses::.switch_cpus.data      1414904                       # number of demand (read+write) misses
system.cpu.dcache.demand_misses::total        1414904                       # number of demand (read+write) misses
system.cpu.dcache.overall_misses::.switch_cpus.data      1414904                       # number of overall misses
system.cpu.dcache.overall_misses::total       1414904                       # number of overall misses
system.cpu.dcache.demand_miss_latency::.switch_cpus.data 117569484000                       # number of demand (read+write) miss cycles
system.cpu.dcache.demand_miss_latency::total 117569484000                       # number of demand (read+write) miss cycles
system.cpu.dcache.overall_miss_latency::.switch_cpus.data 117569484000                       # number of overall miss cycles
system.cpu.dcache.overall_miss_latency::total 117569484000                       # number of overall miss cycles
system.cpu.dcache.demand_accesses::.switch_cpus.data     11351235                       # number of demand (read+write) accesses
system.cpu.dcache.demand_accesses::total     11351235                       # number of demand (read+write) accesses
system.cpu.dcache.overall_accesses::.switch_cpus.data     11351235                       # number of overall (read+write) accesses
system.cpu.dcache.overall_accesses::total     11351235                       # number of overall (read+write) accesses
system.cpu.dcache.demand_miss_rate::.switch_cpus.data     0.124648                       # miss rate for demand accesses
system.cpu.dcache.demand_miss_rate::total     0.124648                       # miss rate for demand accesses
system.cpu.dcache.overall_miss_rate::.switch_cpus.data     0.124648                       # miss rate for overall accesses
system.cpu.dcache.overall_miss_rate::total     0.124648                       # miss rate for overall accesses
system.cpu.dcache.demand_avg_miss_latency::.switch_cpus.data 83093.612005                       # average overall miss latency
system.cpu.dcache.demand_avg_miss_latency::total 83093.612005                       # average overall miss latency
system.cpu.dcache.overall_avg_miss_latency::.switch_cpus.data 83093.612005                       # average overall miss latency
system.cpu.dcache.overall_avg_miss_latency::total 83093.612005                       # average overall miss latency
system.cpu.dcache.blocked_cycles::no_mshrs           32                       # number of cycles access was blocked
system.cpu.dcache.blocked_cycles::no_targets            0                       # number of cycles access was blocked
system.cpu.dcache.blocked::no_mshrs                 3                       # number of cycles access was blocked
system.cpu.dcache.blocked::no_targets               0                       # number of cycles access was blocked
system.cpu.dcache.avg_blocked_cycles::no_mshrs    10.666667                       # average number of cycles each access was blocked
system.cpu.dcache.avg_blocked_cycles::no_targets          nan                       # average number of cycles each access was blocked
system.cpu.dcache.writebacks::.writebacks      1414546                       # number of writebacks
system.cpu.dcache.writebacks::total           1414546                       # number of writebacks
system.cpu.dcache.demand_mshr_hits::.switch_cpus.data          320                       # number of demand (read+write) MSHR hits
system.cpu.dcache.demand_mshr_hits::total          320                       # number of demand (read+write) MSHR hits
system.cpu.dcache.overall_mshr_hits::.switch_cpus.data          320                       # number of overall MSHR hits
system.cpu.dcache.overall_mshr_hits::total          320                       # number of overall MSHR hits
system.cpu.dcache.demand_mshr_misses::.switch_cpus.data      1414584                       # number of demand (read+write) MSHR misses
system.cpu.dcache.demand_mshr_misses::total      1414584                       # number of demand (read+write) MSHR misses
system.cpu.dcache.overall_mshr_misses::.switch_cpus.data      1414584                       # number of overall MSHR misses
system.cpu.dcache.overall_mshr_misses::total      1414584                       # number of overall MSHR misses
system.cpu.dcache.demand_mshr_miss_latency::.switch_cpus.data 116139954500                       # number of demand (read+write) MSHR miss cycles
system.cpu.dcache.demand_mshr_miss_latency::total 116139954500                       # number of demand (read+write) MSHR miss cycles
system.cpu.dcache.overall_mshr_miss_latency::.switch_cpus.data 116139954500                       # number of overall MSHR miss cycles
system.cpu.dcache.overall_mshr_miss_latency::total 116139954500                       # number of overall MSHR miss cycles
system.cpu.dcache.demand_mshr_miss_rate::.switch_cpus.data     0.124619                       # mshr miss rate for demand accesses
system.cpu.dcache.demand_mshr_miss_rate::total     0.124619                       # mshr miss rate for demand accesses
system.cpu.dcache.overall_mshr_miss_rate::.switch_cpus.data     0.124619                       # mshr miss rate for overall accesses
system.cpu.dcache.overall_mshr_miss_rate::total     0.124619                       # mshr miss rate for overall accesses
system.cpu.dcache.demand_avg_mshr_miss_latency::.switch_cpus.data 82101.843722                       # average overall mshr miss latency
system.cpu.dcache.demand_avg_mshr_miss_latency::total 82101.843722                       # average overall mshr miss latency
system.cpu.dcache.overall_avg_mshr_miss_latency::.switch_cpus.data 82101.843722                       # average overall mshr miss latency
system.cpu.dcache.overall_avg_mshr_miss_latency::total 82101.843722                       # average overall mshr miss latency
system.cpu.dcache.replacements                1414583                       # number of replacements
system.cpu.dcache.ReadReq_hits::.switch_cpus.data        28840                       # number of ReadReq hits
system.cpu.dcache.ReadReq_hits::total           28840                       # number of ReadReq hits
system.cpu.dcache.ReadReq_misses::.switch_cpus.data          429                       # number of ReadReq misses
system.cpu.dcache.ReadReq_misses::total           429                       # number of ReadReq misses
system.cpu.dcache.ReadReq_miss_latency::.switch_cpus.data     19226500                       # number of ReadReq miss cycles
system.cpu.dcache.ReadReq_miss_latency::total     19226500                       # number of ReadReq miss cycles
system.cpu.dcache.ReadReq_accesses::.switch_cpus.data        29269                       # number of ReadReq accesses(hits+misses)
system.cpu.dcache.ReadReq_accesses::total        29269                       # number of ReadReq accesses(hits+misses)
system.cpu.dcache.ReadReq_miss_rate::.switch_cpus.data     0.014657                       # miss rate for ReadReq accesses
system.cpu.dcache.ReadReq_miss_rate::total     0.014657                       # miss rate for ReadReq accesses
system.cpu.dcache.ReadReq_avg_miss_latency::.switch_cpus.data 44817.016317                       # average ReadReq miss latency
system.cpu.dcache.ReadReq_avg_miss_latency::total 44817.016317                       # average ReadReq miss latency
system.cpu.dcache.ReadReq_mshr_hits::.switch_cpus.data          320                       # number of ReadReq MSHR hits
system.cpu.dcache.ReadReq_mshr_hits::total          320                       # number of ReadReq MSHR hits
system.cpu.dcache.ReadReq_mshr_misses::.switch_cpus.data          109                       # number of ReadReq MSHR misses
system.cpu.dcache.ReadReq_mshr_misses::total          109                       # number of ReadReq MSHR misses
system.cpu.dcache.ReadReq_mshr_miss_latency::.switch_cpus.data      4171000                       # number of ReadReq MSHR miss cycles
system.cpu.dcache.ReadReq_mshr_miss_latency::total      4171000                       # number of ReadReq MSHR miss cycles
system.cpu.dcache.ReadReq_mshr_miss_rate::.switch_cpus.data     0.003724                       # mshr miss rate for ReadReq accesses
system.cpu.dcache.ReadReq_mshr_miss_rate::total     0.003724                       # mshr miss rate for ReadReq accesses
system.cpu.dcache.ReadReq_avg_mshr_miss_latency::.switch_cpus.data 38266.055046                       # average ReadReq mshr miss latency
system.cpu.dcache.ReadReq_avg_mshr_miss_latency::total 38266.055046                       # average ReadReq mshr miss latency
system.cpu.dcache.WriteReq_hits::.switch_cpus.data      9907491                       # number of WriteReq hits
system.cpu.dcache.WriteReq_hits::total        9907491                       # number of WriteReq hits
system.cpu.dcache.WriteReq_misses::.switch_cpus.data      1414475                       # number of WriteReq misses
system.cpu.dcache.WriteReq_misses::total      1414475                       # number of WriteReq misses
system.cpu.dcache.WriteReq_miss_latency::.switch_cpus.data 117550257500                       # number of WriteReq miss cycles
system.cpu.dcache.WriteReq_miss_latency::total 117550257500                       # number of WriteReq miss cycles
system.cpu.dcache.WriteReq_accesses::.switch_cpus.data     11321966                       # number of WriteReq accesses(hits+misses)
system.cpu.dcache.WriteReq_accesses::total     11321966                       # number of WriteReq accesses(hits+misses)
system.cpu.dcache.WriteReq_miss_rate::.switch_cpus.data     0.124932                       # miss rate for WriteReq accesses
system.cpu.dcache.WriteReq_miss_rate::total     0.124932                       # miss rate for WriteReq accesses
system.cpu.dcache.WriteReq_avg_miss_latency::.switch_cpus.data 83105.221018                       # average WriteReq miss latency
system.cpu.dcache.WriteReq_avg_miss_latency::total 83105.221018                       # average WriteReq miss latency
system.cpu.dcache.WriteReq_mshr_misses::.switch_cpus.data      1414475                       # number of WriteReq MSHR misses
system.cpu.dcache.WriteReq_mshr_misses::total      1414475                       # number of WriteReq MSHR misses
system.cpu.dcache.WriteReq_mshr_miss_latency::.switch_cpus.data 116135783500                       # number of WriteReq MSHR miss cycles
system.cpu.dcache.WriteReq_mshr_miss_latency::total 116135783500                       # number of WriteReq MSHR miss cycles
system.cpu.dcache.WriteReq_mshr_miss_rate::.switch_cpus.data     0.124932                       # mshr miss rate for WriteReq accesses
system.cpu.dcache.WriteReq_mshr_miss_rate::total     0.124932                       # mshr miss rate for WriteReq accesses
system.cpu.dcache.WriteReq_avg_mshr_miss_latency::.switch_cpus.data 82105.221725                       # average WriteReq mshr miss latency
system.cpu.dcache.WriteReq_avg_mshr_miss_latency::total 82105.221725                       # average WriteReq mshr miss latency
system.cpu.dcache.power_state.pwrStateResidencyTicks::UNDEFINED 128950767500                       # Cumulative time (in ticks) in various power states
system.cpu.dcache.tags.tagsinuse                 1024                       # Cycle average of tags in use
system.cpu.dcache.tags.total_refs            11414445                       # Total number of references to valid blocks.
system.cpu.dcache.tags.sampled_refs           1415607                       # Sample count of references to valid blocks.
system.cpu.dcache.tags.avg_refs              8.063287                       # Average number of references to valid blocks.
system.cpu.dcache.tags.warmup_cycle                 0                       # Cycle when the warmup percentage was hit.
system.cpu.dcache.tags.occ_blocks::.cpu.data     0.748672                       # Average occupied blocks per requestor
system.cpu.dcache.tags.occ_blocks::.switch_cpus.data  1023.251328                       # Average occupied blocks per requestor
system.cpu.dcache.tags.occ_percent::.cpu.data     0.000731                       # Average percentage of cache occupancy
system.cpu.dcache.tags.occ_percent::.switch_cpus.data     0.999269                       # Average percentage of cache occupancy
system.cpu.dcache.tags.occ_percent::total            1                       # Average percentage of cache occupancy
system.cpu.dcache.tags.occ_task_id_blocks::1024         1024                       # Occupied blocks per task id
system.cpu.dcache.tags.age_task_id_blocks_1024::0          109                       # Occupied blocks per task id
system.cpu.dcache.tags.age_task_id_blocks_1024::1          915                       # Occupied blocks per task id
system.cpu.dcache.tags.occ_task_id_percent::1024            1                       # Percentage of cache occupancy per task id
system.cpu.dcache.tags.tag_accesses          24117053                       # Number of tag accesses
system.cpu.dcache.tags.data_accesses         24117053                       # Number of data accesses
system.cpu.dcache.tags.power_state.pwrStateResidencyTicks::UNDEFINED 128950767500                       # Cumulative time (in ticks) in various power states
system.cpu.dtb.rdAccesses                           0                       # TLB accesses on read requests
system.cpu.dtb.wrAccesses                           0                       # TLB accesses on write requests
system.cpu.dtb.rdMisses                             0                       # TLB misses on read requests
system.cpu.dtb.wrMisses                             0                       # TLB misses on write requests
system.cpu.dtb.walker.power_state.pwrStateResidencyTicks::UNDEFINED 128950767500                       # Cumulative time (in ticks) in various power states
system.cpu.dtb_walker_cache.blocked_cycles::no_mshrs            0                       # number of cycles access was blocked
system.cpu.dtb_walker_cache.blocked_cycles::no_targets            0                       # number of cycles access was blocked
system.cpu.dtb_walker_cache.blocked::no_mshrs            0                       # number of cycles access was blocked
system.cpu.dtb_walker_cache.blocked::no_targets            0                       # number of cycles access was blocked
system.cpu.dtb_walker_cache.avg_blocked_cycles::no_mshrs          nan                       # average number of cycles each access was blocked
system.cpu.dtb_walker_cache.avg_blocked_cycles::no_targets          nan                       # average number of cycles each access was blocked
system.cpu.dtb_walker_cache.replacements            0                       # number of replacements
system.cpu.dtb_walker_cache.power_state.pwrStateResidencyTicks::UNDEFINED 128950767500                       # Cumulative time (in ticks) in various power states
system.cpu.dtb_walker_cache.tags.tagsinuse            0                       # Cycle average of tags in use
system.cpu.dtb_walker_cache.tags.total_refs            0                       # Total number of references to valid blocks.
system.cpu.dtb_walker_cache.tags.sampled_refs            0                       # Sample count of references to valid blocks.
system.cpu.dtb_walker_cache.tags.avg_refs          nan                       # Average number of references to valid blocks.
system.cpu.dtb_walker_cache.tags.warmup_cycle            0                       # Cycle when the warmup percentage was hit.
system.cpu.dtb_walker_cache.tags.tag_accesses            0                       # Number of tag accesses
system.cpu.dtb_walker_cache.tags.data_accesses            0                       # Number of data accesses
system.cpu.dtb_walker_cache.tags.power_state.pwrStateResidencyTicks::UNDEFINED 128950767500                       # Cumulative time (in ticks) in various power states
system.cpu.icache.demand_hits::.switch_cpus.inst        34274                       # number of demand (read+write) hits
system.cpu.icache.demand_hits::total            34274                       # number of demand (read+write) hits
system.cpu.icache.overall_hits::.switch_cpus.inst        34274                       # number of overall hits
system.cpu.icache.overall_hits::total           34274                       # number of overall hits
system.cpu.icache.demand_misses::.switch_cpus.inst          158                       # number of demand (read+write) misses
system.cpu.icache.demand_misses::total            158                       # number of demand (read+write) misses
system.cpu.icache.overall_misses::.switch_cpus.inst          158                       # number of overall misses
system.cpu.icache.overall_misses::total           158                       # number of overall misses
system.cpu.icache.demand_miss_latency::.switch_cpus.inst     10408000                       # number of demand (read+write) miss cycles
system.cpu.icache.demand_miss_latency::total     10408000                       # number of demand (read+write) miss cycles
system.cpu.icache.overall_miss_latency::.switch_cpus.inst     10408000                       # number of overall miss cycles
system.cpu.icache.overall_miss_latency::total     10408000                       # number of overall miss cycles
system.cpu.icache.demand_accesses::.switch_cpus.inst        34432                       # number of demand (read+write) accesses
system.cpu.icache.demand_accesses::total        34432                       # number of demand (read+write) accesses
system.cpu.icache.overall_accesses::.switch_cpus.inst        34432                       # number of overall (read+write) accesses
system.cpu.icache.overall_accesses::total        34432                       # number of overall (read+write) accesses
system.cpu.icache.demand_miss_rate::.switch_cpus.inst     0.004589                       # miss rate for demand accesses
system.cpu.icache.demand_miss_rate::total     0.004589                       # miss rate for demand accesses
system.cpu.icache.overall_miss_rate::.switch_cpus.inst     0.004589                       # miss rate for overall accesses
system.cpu.icache.overall_miss_rate::total     0.004589                       # miss rate for overall accesses
system.cpu.icache.demand_avg_miss_latency::.switch_cpus.inst 65873.417722                       # average overall miss latency
system.cpu.icache.demand_avg_miss_latency::total 65873.417722                       # average overall miss latency
system.cpu.icache.overall_avg_miss_latency::.switch_cpus.inst 65873.417722                       # average overall miss latency
system.cpu.icache.overall_avg_miss_latency::total 65873.417722                       # average overall miss latency
system.cpu.icache.blocked_cycles::no_mshrs            0                       # number of cycles access was blocked
system.cpu.icache.blocked_cycles::no_targets            0                       # number of cycles access was blocked
system.cpu.icache.blocked::no_mshrs                 0                       # number of cycles access was blocked
system.cpu.icache.blocked::no_targets               0                       # number of cycles access was blocked
system.cpu.icache.avg_blocked_cycles::no_mshrs          nan                       # average number of cycles each access was blocked
system.cpu.icache.avg_blocked_cycles::no_targets          nan                       # average number of cycles each access was blocked
system.cpu.icache.writebacks::.writebacks           68                       # number of writebacks
system.cpu.icache.writebacks::total                68                       # number of writebacks
system.cpu.icache.demand_mshr_hits::.switch_cpus.inst           66                       # number of demand (read+write) MSHR hits
system.cpu.icache.demand_mshr_hits::total           66                       # number of demand (read+write) MSHR hits
system.cpu.icache.overall_mshr_hits::.switch_cpus.inst           66                       # number of overall MSHR hits
system.cpu.icache.overall_mshr_hits::total           66                       # number of overall MSHR hits
system.cpu.icache.demand_mshr_misses::.switch_cpus.inst           92                       # number of demand (read+write) MSHR misses
system.cpu.icache.demand_mshr_misses::total           92                       # number of demand (read+write) MSHR misses
system.cpu.icache.overall_mshr_misses::.switch_cpus.inst           92                       # number of overall MSHR misses
system.cpu.icache.overall_mshr_misses::total           92                       # number of overall MSHR misses
system.cpu.icache.demand_mshr_miss_latency::.switch_cpus.inst      7072000                       # number of demand (read+write) MSHR miss cycles
system.cpu.icache.demand_mshr_miss_latency::total      7072000                       # number of demand (read+write) MSHR miss cycles
system.cpu.icache.overall_mshr_miss_latency::.switch_cpus.inst      7072000                       # number of overall MSHR miss cycles
system.cpu.icache.overall_mshr_miss_latency::total      7072000                       # number of overall MSHR miss cycles
system.cpu.icache.demand_mshr_miss_rate::.switch_cpus.inst     0.002672                       # mshr miss rate for demand accesses
system.cpu.icache.demand_mshr_miss_rate::total     0.002672                       # mshr miss rate for demand accesses
system.cpu.icache.overall_mshr_miss_rate::.switch_cpus.inst     0.002672                       # mshr miss rate for overall accesses
system.cpu.icache.overall_mshr_miss_rate::total     0.002672                       # mshr miss rate for overall accesses
system.cpu.icache.demand_avg_mshr_miss_latency::.switch_cpus.inst 76869.565217                       # average overall mshr miss latency
system.cpu.icache.demand_avg_mshr_miss_latency::total 76869.565217                       # average overall mshr miss latency
system.cpu.icache.overall_avg_mshr_miss_latency::.switch_cpus.inst 76869.565217                       # average overall mshr miss latency
system.cpu.icache.overall_avg_mshr_miss_latency::total 76869.565217                       # average overall mshr miss latency
system.cpu.icache.replacements                     68                       # number of replacements
system.cpu.icache.ReadReq_hits::.switch_cpus.inst        34274                       # number of ReadReq hits
system.cpu.icache.ReadReq_hits::total           34274                       # number of ReadReq hits
system.cpu.icache.ReadReq_misses::.switch_cpus.inst          158                       # number of ReadReq misses
system.cpu.icache.ReadReq_misses::total           158                       # number of ReadReq misses
system.cpu.icache.ReadReq_miss_latency::.switch_cpus.inst     10408000                       # number of ReadReq miss cycles
system.cpu.icache.ReadReq_miss_latency::total     10408000                       # number of ReadReq miss cycles
system.cpu.icache.ReadReq_accesses::.switch_cpus.inst        34432                       # number of ReadReq accesses(hits+misses)
system.cpu.icache.ReadReq_accesses::total        34432                       # number of ReadReq accesses(hits+misses)
system.cpu.icache.ReadReq_miss_rate::.switch_cpus.inst     0.004589                       # miss rate for ReadReq accesses
system.cpu.icache.ReadReq_miss_rate::total     0.004589                       # miss rate for ReadReq accesses
system.cpu.icache.ReadReq_avg_miss_latency::.switch_cpus.inst 65873.417722                       # average ReadReq miss latency
system.cpu.icache.ReadReq_avg_miss_latency::total 65873.417722                       # average ReadReq miss latency
system.cpu.icache.ReadReq_mshr_hits::.switch_cpus.inst           66                       # number of ReadReq MSHR hits
system.cpu.icache.ReadReq_mshr_hits::total           66                       # number of ReadReq MSHR hits
system.cpu.icache.ReadReq_mshr_misses::.switch_cpus.inst           92                       # number of ReadReq MSHR misses
system.cpu.icache.ReadReq_mshr_misses::total           92                       # number of ReadReq MSHR misses
system.cpu.icache.ReadReq_mshr_miss_latency::.switch_cpus.inst      7072000                       # number of ReadReq MSHR miss cycles
system.cpu.icache.ReadReq_mshr_miss_latency::total      7072000                       # number of ReadReq MSHR miss cycles
system.cpu.icache.ReadReq_mshr_miss_rate::.switch_cpus.inst     0.002672                       # mshr miss rate for ReadReq accesses
system.cpu.icache.ReadReq_mshr_miss_rate::total     0.002672                       # mshr miss rate for ReadReq accesses
system.cpu.icache.ReadReq_avg_mshr_miss_latency::.switch_cpus.inst 76869.565217                       # average ReadReq mshr miss latency
system.cpu.icache.ReadReq_avg_mshr_miss_latency::total 76869.565217                       # average ReadReq mshr miss latency
system.cpu.icache.power_state.pwrStateResidencyTicks::UNDEFINED 128950767500                       # Cumulative time (in ticks) in various power states
system.cpu.icache.tags.tagsinuse           839.987894                       # Cycle average of tags in use
system.cpu.icache.tags.total_refs             1384730                       # Total number of references to valid blocks.
system.cpu.icache.tags.sampled_refs               908                       # Sample count of references to valid blocks.
system.cpu.icache.tags.avg_refs           1525.033040                       # Average number of references to valid blocks.
system.cpu.icache.tags.warmup_cycle                 0                       # Cycle when the warmup percentage was hit.
system.cpu.icache.tags.occ_blocks::.cpu.inst   748.029222                       # Average occupied blocks per requestor
system.cpu.icache.tags.occ_blocks::.switch_cpus.inst    91.958672                       # Average occupied blocks per requestor
system.cpu.icache.tags.occ_percent::.cpu.inst     0.730497                       # Average percentage of cache occupancy
system.cpu.icache.tags.occ_percent::.switch_cpus.inst     0.089803                       # Average percentage of cache occupancy
system.cpu.icache.tags.occ_percent::total     0.820301                       # Average percentage of cache occupancy
system.cpu.icache.tags.occ_task_id_blocks::1024          840                       # Occupied blocks per task id
system.cpu.icache.tags.age_task_id_blocks_1024::4          840                       # Occupied blocks per task id
system.cpu.icache.tags.occ_task_id_percent::1024     0.820312                       # Percentage of cache occupancy per task id
system.cpu.icache.tags.tag_accesses             68956                       # Number of tag accesses
system.cpu.icache.tags.data_accesses            68956                       # Number of data accesses
system.cpu.icache.tags.power_state.pwrStateResidencyTicks::UNDEFINED 128950767500                       # Cumulative time (in ticks) in various power states
system.cpu.interrupts.clk_domain.clock           8000                       # Clock period in ticks
system.cpu.itb.rdAccesses                           0                       # TLB accesses on read requests
system.cpu.itb.wrAccesses                           0                       # TLB accesses on write requests
system.cpu.itb.rdMisses                             0                       # TLB misses on read requests
system.cpu.itb.wrMisses                             0                       # TLB misses on write requests
system.cpu.itb.walker.power_state.pwrStateResidencyTicks::UNDEFINED 128950767500                       # Cumulative time (in ticks) in various power states
system.cpu.itb_walker_cache.blocked_cycles::no_mshrs            0                       # number of cycles access was blocked
system.cpu.itb_walker_cache.blocked_cycles::no_targets            0                       # number of cycles access was blocked
system.cpu.itb_walker_cache.blocked::no_mshrs            0                       # number of cycles access was blocked
system.cpu.itb_walker_cache.blocked::no_targets            0                       # number of cycles access was blocked
system.cpu.itb_walker_cache.avg_blocked_cycles::no_mshrs          nan                       # average number of cycles each access was blocked
system.cpu.itb_walker_cache.avg_blocked_cycles::no_targets          nan                       # average number of cycles each access was blocked
system.cpu.itb_walker_cache.replacements            0                       # number of replacements
system.cpu.itb_walker_cache.power_state.pwrStateResidencyTicks::UNDEFINED 128950767500                       # Cumulative time (in ticks) in various power states
system.cpu.itb_walker_cache.tags.tagsinuse            0                       # Cycle average of tags in use
system.cpu.itb_walker_cache.tags.total_refs            0                       # Total number of references to valid blocks.
system.cpu.itb_walker_cache.tags.sampled_refs            0                       # Sample count of references to valid blocks.
system.cpu.itb_walker_cache.tags.avg_refs          nan                       # Average number of references to valid blocks.
system.cpu.itb_walker_cache.tags.warmup_cycle            0                       # Cycle when the warmup percentage was hit.
system.cpu.itb_walker_cache.tags.tag_accesses            0                       # Number of tag accesses
system.cpu.itb_walker_cache.tags.data_accesses            0                       # Number of data accesses
system.cpu.itb_walker_cache.tags.power_state.pwrStateResidencyTicks::UNDEFINED 128950767500                       # Cumulative time (in ticks) in various power states
system.cpu.power_state.pwrStateResidencyTicks::OFF 127844588000                       # Cumulative time (in ticks) in various power states
system.cpu.thread_0.numInsts                        0                       # Number of Instructions committed
system.cpu.thread_0.numOps                          0                       # Number of Ops committed
system.cpu.thread_0.numMemRefs                      0                       # Number of Memory References
system.cpu_clk_domain.clock                       500                       # Clock period in ticks
system.cpu_voltage_domain.voltage                   1                       # Voltage in Volts
system.l2.demand_hits::.switch_cpus.inst            1                       # number of demand (read+write) hits
system.l2.demand_hits::.switch_cpus.data           79                       # number of demand (read+write) hits
system.l2.demand_hits::total                       80                       # number of demand (read+write) hits
system.l2.overall_hits::.switch_cpus.inst            1                       # number of overall hits
system.l2.overall_hits::.switch_cpus.data           79                       # number of overall hits
system.l2.overall_hits::total                      80                       # number of overall hits
system.l2.demand_misses::.switch_cpus.inst           91                       # number of demand (read+write) misses
system.l2.demand_misses::.switch_cpus.data      1414505                       # number of demand (read+write) misses
system.l2.demand_misses::total                1414596                       # number of demand (read+write) misses
system.l2.overall_misses::.switch_cpus.inst           91                       # number of overall misses
system.l2.overall_misses::.switch_cpus.data      1414505                       # number of overall misses
system.l2.overall_misses::total               1414596                       # number of overall misses
system.l2.demand_miss_latency::.switch_cpus.inst      6921500                       # number of demand (read+write) miss cycles
system.l2.demand_miss_latency::.switch_cpus.data 114017149000                       # number of demand (read+write) miss cycles
system.l2.demand_miss_latency::total     114024070500                       # number of demand (read+write) miss cycles
system.l2.overall_miss_latency::.switch_cpus.inst      6921500                       # number of overall miss cycles
system.l2.overall_miss_latency::.switch_cpus.data 114017149000                       # number of overall miss cycles
system.l2.overall_miss_latency::total    114024070500                       # number of overall miss cycles
system.l2.demand_accesses::.switch_cpus.inst           92                       # number of demand (read+write) accesses
system.l2.demand_accesses::.switch_cpus.data      1414584                       # number of demand (read+write) accesses
system.l2.demand_accesses::total              1414676                       # number of demand (read+write) accesses
system.l2.overall_accesses::.switch_cpus.inst           92                       # number of overall (read+write) accesses
system.l2.overall_accesses::.switch_cpus.data      1414584                       # number of overall (read+write) accesses
system.l2.overall_accesses::total             1414676                       # number of overall (read+write) accesses
system.l2.demand_miss_rate::.switch_cpus.inst     0.989130                       # miss rate for demand accesses
system.l2.demand_miss_rate::.switch_cpus.data     0.999944                       # miss rate for demand accesses
system.l2.demand_miss_rate::total            0.999943                       # miss rate for demand accesses
system.l2.overall_miss_rate::.switch_cpus.inst     0.989130                       # miss rate for overall accesses
system.l2.overall_miss_rate::.switch_cpus.data     0.999944                       # miss rate for overall accesses
system.l2.overall_miss_rate::total           0.999943                       # miss rate for overall accesses
system.l2.demand_avg_miss_latency::.switch_cpus.inst 76060.439560                       # average overall miss latency
system.l2.demand_avg_miss_latency::.switch_cpus.data 80605.688209                       # average overall miss latency
system.l2.demand_avg_miss_latency::total 80605.395816                       # average overall miss latency
system.l2.overall_avg_miss_latency::.switch_cpus.inst 76060.439560                       # average overall miss latency
system.l2.overall_avg_miss_latency::.switch_cpus.data 80605.688209                       # average overall miss latency
system.l2.overall_avg_miss_latency::total 80605.395816                       # average overall miss latency
system.l2.blocked_cycles::no_mshrs                  0                       # number of cycles access was blocked
system.l2.blocked_cycles::no_targets                0                       # number of cycles access was blocked
system.l2.blocked::no_mshrs                         0                       # number of cycles access was blocked
system.l2.blocked::no_targets                       0                       # number of cycles access was blocked
system.l2.avg_blocked_cycles::no_mshrs            nan                       # average number of cycles each access was blocked
system.l2.avg_blocked_cycles::no_targets          nan                       # average number of cycles each access was blocked
system.l2.writebacks::.writebacks             1408064                       # number of writebacks
system.l2.writebacks::total                   1408064                       # number of writebacks
system.l2.demand_mshr_misses::.switch_cpus.inst           91                       # number of demand (read+write) MSHR misses
system.l2.demand_mshr_misses::.switch_cpus.data      1414505                       # number of demand (read+write) MSHR misses
system.l2.demand_mshr_misses::total           1414596                       # number of demand (read+write) MSHR misses
system.l2.overall_mshr_misses::.switch_cpus.inst           91                       # number of overall MSHR misses
system.l2.overall_mshr_misses::.switch_cpus.data      1414505                       # number of overall MSHR misses
system.l2.overall_mshr_misses::total          1414596                       # number of overall MSHR misses
system.l2.demand_mshr_miss_latency::.switch_cpus.inst      6011500                       # number of demand (read+write) MSHR miss cycles
system.l2.demand_mshr_miss_latency::.switch_cpus.data  99872109000                       # number of demand (read+write) MSHR miss cycles
system.l2.demand_mshr_miss_latency::total  99878120500                       # number of demand (read+write) MSHR miss cycles
system.l2.overall_mshr_miss_latency::.switch_cpus.inst      6011500                       # number of overall MSHR miss cycles
system.l2.overall_mshr_miss_latency::.switch_cpus.data  99872109000                       # number of overall MSHR miss cycles
system.l2.overall_mshr_miss_latency::total  99878120500                       # number of overall MSHR miss cycles
system.l2.demand_mshr_miss_rate::.switch_cpus.inst     0.989130                       # mshr miss rate for demand accesses
system.l2.demand_mshr_miss_rate::.switch_cpus.data     0.999944                       # mshr miss rate for demand accesses
system.l2.demand_mshr_miss_rate::total       0.999943                       # mshr miss rate for demand accesses
system.l2.overall_mshr_miss_rate::.switch_cpus.inst     0.989130                       # mshr miss rate for overall accesses
system.l2.overall_mshr_miss_rate::.switch_cpus.data     0.999944                       # mshr miss rate for overall accesses
system.l2.overall_mshr_miss_rate::total      0.999943                       # mshr miss rate for overall accesses
system.l2.demand_avg_mshr_miss_latency::.switch_cpus.inst 66060.439560                       # average overall mshr miss latency
system.l2.demand_avg_mshr_miss_latency::.switch_cpus.data 70605.695279                       # average overall mshr miss latency
system.l2.demand_avg_mshr_miss_latency::total 70605.402885                       # average overall mshr miss latency
system.l2.overall_avg_mshr_miss_latency::.switch_cpus.inst 66060.439560                       # average overall mshr miss latency
system.l2.overall_avg_mshr_miss_latency::.switch_cpus.data 70605.695279                       # average overall mshr miss latency
system.l2.overall_avg_mshr_miss_latency::total 70605.402885                       # average overall mshr miss latency
system.l2.replacements                        1411261                       # number of replacements
system.l2.WritebackDirty_hits::.writebacks      1414546                       # number of WritebackDirty hits
system.l2.WritebackDirty_hits::total          1414546                       # number of WritebackDirty hits
system.l2.WritebackDirty_accesses::.writebacks      1414546                       # number of WritebackDirty accesses(hits+misses)
system.l2.WritebackDirty_accesses::total      1414546                       # number of WritebackDirty accesses(hits+misses)
system.l2.WritebackClean_hits::.writebacks           68                       # number of WritebackClean hits
system.l2.WritebackClean_hits::total               68                       # number of WritebackClean hits
system.l2.WritebackClean_accesses::.writebacks           68                       # number of WritebackClean accesses(hits+misses)
system.l2.WritebackClean_accesses::total           68                       # number of WritebackClean accesses(hits+misses)
system.l2.ReadExReq_hits::.switch_cpus.data           10                       # number of ReadExReq hits
system.l2.ReadExReq_hits::total                    10                       # number of ReadExReq hits
system.l2.ReadExReq_misses::.switch_cpus.data      1414465                       # number of ReadExReq misses
system.l2.ReadExReq_misses::total             1414465                       # number of ReadExReq misses
system.l2.ReadExReq_miss_latency::.switch_cpus.data 114013880500                       # number of ReadExReq miss cycles
system.l2.ReadExReq_miss_latency::total  114013880500                       # number of ReadExReq miss cycles
system.l2.ReadExReq_accesses::.switch_cpus.data      1414475                       # number of ReadExReq accesses(hits+misses)
system.l2.ReadExReq_accesses::total           1414475                       # number of ReadExReq accesses(hits+misses)
system.l2.ReadExReq_miss_rate::.switch_cpus.data     0.999993                       # miss rate for ReadExReq accesses
system.l2.ReadExReq_miss_rate::total         0.999993                       # miss rate for ReadExReq accesses
system.l2.ReadExReq_avg_miss_latency::.switch_cpus.data 80605.656909                       # average ReadExReq miss latency
system.l2.ReadExReq_avg_miss_latency::total 80605.656909                       # average ReadExReq miss latency
system.l2.ReadExReq_mshr_misses::.switch_cpus.data      1414465                       # number of ReadExReq MSHR misses
system.l2.ReadExReq_mshr_misses::total        1414465                       # number of ReadExReq MSHR misses
system.l2.ReadExReq_mshr_miss_latency::.switch_cpus.data  99869240500                       # number of ReadExReq MSHR miss cycles
system.l2.ReadExReq_mshr_miss_latency::total  99869240500                       # number of ReadExReq MSHR miss cycles
system.l2.ReadExReq_mshr_miss_rate::.switch_cpus.data     0.999993                       # mshr miss rate for ReadExReq accesses
system.l2.ReadExReq_mshr_miss_rate::total     0.999993                       # mshr miss rate for ReadExReq accesses
system.l2.ReadExReq_avg_mshr_miss_latency::.switch_cpus.data 70605.663979                       # average ReadExReq mshr miss latency
system.l2.ReadExReq_avg_mshr_miss_latency::total 70605.663979                       # average ReadExReq mshr miss latency
system.l2.ReadCleanReq_hits::.switch_cpus.inst            1                       # number of ReadCleanReq hits
system.l2.ReadCleanReq_hits::total                  1                       # number of ReadCleanReq hits
system.l2.ReadCleanReq_misses::.switch_cpus.inst           91                       # number of ReadCleanReq misses
system.l2.ReadCleanReq_misses::total               91                       # number of ReadCleanReq misses
system.l2.ReadCleanReq_miss_latency::.switch_cpus.inst      6921500                       # number of ReadCleanReq miss cycles
system.l2.ReadCleanReq_miss_latency::total      6921500                       # number of ReadCleanReq miss cycles
system.l2.ReadCleanReq_accesses::.switch_cpus.inst           92                       # number of ReadCleanReq accesses(hits+misses)
system.l2.ReadCleanReq_accesses::total             92                       # number of ReadCleanReq accesses(hits+misses)
system.l2.ReadCleanReq_miss_rate::.switch_cpus.inst     0.989130                       # miss rate for ReadCleanReq accesses
system.l2.ReadCleanReq_miss_rate::total      0.989130                       # miss rate for ReadCleanReq accesses
system.l2.ReadCleanReq_avg_miss_latency::.switch_cpus.inst 76060.439560                       # average ReadCleanReq miss latency
system.l2.ReadCleanReq_avg_miss_latency::total 76060.439560                       # average ReadCleanReq miss latency
system.l2.ReadCleanReq_mshr_misses::.switch_cpus.inst           91                       # number of ReadCleanReq MSHR misses
system.l2.ReadCleanReq_mshr_misses::total           91                       # number of ReadCleanReq MSHR misses
system.l2.ReadCleanReq_mshr_miss_latency::.switch_cpus.inst      6011500                       # number of ReadCleanReq MSHR miss cycles
system.l2.ReadCleanReq_mshr_miss_latency::total      6011500                       # number of ReadCleanReq MSHR miss cycles
[...]
system.switch_cpus.commit.committedInstType_0::FloatMult            0      0.00%     43.31% # Class of committed instruction
system.switch_cpus.commit.committedInstType_0::FloatMultAcc            0      0.00%     43.31% # Class of committed instruction
system.switch_cpus.commit.committedInstType_0::FloatDiv            0      0.00%     43.31% # Class of committed instruction
system.switch_cpus.commit.committedInstType_0::FloatMisc            0      0.00%     43.31% # Class of committed instruction
system.switch_cpus.commit.committedInstType_0::FloatSqrt            0      0.00%     43.31% # Class of committed instruction
system.switch_cpus.commit.committedInstType_0::SimdAdd            0      0.00%     43.31% # Class of committed instruction
system.switch_cpus.commit.committedInstType_0::SimdAddAcc            0      0.00%     43.31% # Class of committed instruction
system.switch_cpus.commit.committedInstType_0::SimdAlu            4      0.00%     43.31% # Class of committed instruction
system.switch_cpus.commit.committedInstType_0::SimdCmp            0      0.00%     43.31% # Class of committed instruction
system.switch_cpus.commit.committedInstType_0::SimdCvt            0      0.00%     43.31% # Class of committed instruction
system.switch_cpus.commit.committedInstType_0::SimdMisc            7      0.00%     43.31% # Class of committed instruction
system.switch_cpus.commit.committedInstType_0::SimdMult            0      0.00%     43.31% # Class of committed instruction
system.switch_cpus.commit.committedInstType_0::SimdMultAcc            0      0.00%     43.31% # Class of committed instruction
system.switch_cpus.commit.committedInstType_0::SimdShift            0      0.00%     43.31% # Class of committed instruction
system.switch_cpus.commit.committedInstType_0::SimdShiftAcc            0      0.00%     43.31% # Class of committed instruction
system.switch_cpus.commit.committedInstType_0::SimdDiv            0      0.00%     43.31% # Class of committed instruction
system.switch_cpus.commit.committedInstType_0::SimdSqrt            0      0.00%     43.31% # Class of committed instruction
system.switch_cpus.commit.committedInstType_0::SimdFloatAdd            0      0.00%     43.31% # Class of committed instruction
system.switch_cpus.commit.committedInstType_0::SimdFloatAlu            0      0.00%     43.31% # Class of committed instruction
system.switch_cpus.commit.committedInstType_0::SimdFloatCmp            0      0.00%     43.31% # Class of committed instruction
system.switch_cpus.commit.committedInstType_0::SimdFloatCvt            0      0.00%     43.31% # Class of committed instruction
system.switch_cpus.commit.committedInstType_0::SimdFloatDiv            0      0.00%     43.31% # Class of committed instruction
system.switch_cpus.commit.committedInstType_0::SimdFloatMisc            0      0.00%     43.31% # Class of committed instruction
system.switch_cpus.commit.committedInstType_0::SimdFloatMult            0      0.00%     43.31% # Class of committed instruction
system.switch_cpus.commit.committedInstType_0::SimdFloatMultAcc            0      0.00%     43.31% # Class of committed instruction
system.switch_cpus.commit.committedInstType_0::SimdFloatSqrt            0      0.00%     43.31% # Class of committed instruction
system.switch_cpus.commit.committedInstType_0::SimdReduceAdd            0      0.00%     43.31% # Class of committed instruction
system.switch_cpus.commit.committedInstType_0::SimdReduceAlu            0      0.00%     43.31% # Class of committed instruction
system.switch_cpus.commit.committedInstType_0::SimdReduceCmp            0      0.00%     43.31% # Class of committed instruction
system.switch_cpus.commit.committedInstType_0::SimdFloatReduceAdd            0      0.00%     43.31% # Class of committed instruction
system.switch_cpus.commit.committedInstType_0::SimdFloatReduceCmp            0      0.00%     43.31% # Class of committed instruction
system.switch_cpus.commit.committedInstType_0::SimdAes            0      0.00%     43.31% # Class of committed instruction
system.switch_cpus.commit.committedInstType_0::SimdAesMix            0      0.00%     43.31% # Class of committed instruction
system.switch_cpus.commit.committedInstType_0::SimdSha1Hash            0      0.00%     43.31% # Class of committed instruction
system.switch_cpus.commit.committedInstType_0::SimdSha1Hash2            0      0.00%     43.31% # Class of committed instruction
system.switch_cpus.commit.committedInstType_0::SimdSha256Hash            0      0.00%     43.31% # Class of committed instruction
system.switch_cpus.commit.committedInstType_0::SimdSha256Hash2            0      0.00%     43.31% # Class of committed instruction
system.switch_cpus.commit.committedInstType_0::SimdShaSigma2            0      0.00%     43.31% # Class of committed instruction
system.switch_cpus.commit.committedInstType_0::SimdShaSigma3            0      0.00%     43.31% # Class of committed instruction
system.switch_cpus.commit.committedInstType_0::SimdPredAlu            0      0.00%     43.31% # Class of committed instruction
system.switch_cpus.commit.committedInstType_0::MemRead        12548      0.06%     43.37% # Class of committed instruction
system.switch_cpus.commit.committedInstType_0::MemWrite         8454      0.04%     43.41% # Class of committed instruction
system.switch_cpus.commit.committedInstType_0::FloatMemRead           38      0.00%     43.41% # Class of committed instruction
system.switch_cpus.commit.committedInstType_0::FloatMemWrite     11313538     56.59%    100.00% # Class of committed instruction
system.switch_cpus.commit.committedInstType_0::IprAccess            0      0.00%    100.00% # Class of committed instruction
system.switch_cpus.commit.committedInstType_0::InstPrefetch            0      0.00%    100.00% # Class of committed instruction
system.switch_cpus.commit.committedInstType_0::total     19993690                       # Class of committed instruction
system.switch_cpus.commit.commitEligibleSamples        98132                       # number cycles where commit BW limit reached
system.switch_cpus.decode.idleCycles           895556                       # Number of cycles decode is idle
system.switch_cpus.decode.blockedCycles     252041584                       # Number of cycles decode is blocked
system.switch_cpus.decode.runCycles            215141                       # Number of cycles decode is running
system.switch_cpus.decode.unblockCycles       2504734                       # Number of cycles decode is unblocking
system.switch_cpus.decode.squashCycles          28669                       # Number of cycles decode is squashing
system.switch_cpus.decode.branchResolved      1524896                       # Number of times decode resolved a  branch
system.switch_cpus.decode.branchMispred            73                       # Number of times decode detected a branch misprediction
system.switch_cpus.decode.decodedInsts       21662950                       # Number of instructions handled by decode
system.switch_cpus.decode.squashedInsts           248                       # Number of squashed instructions handled by decode
system.switch_cpus.dtb.rdAccesses               29639                       # TLB accesses on read requests
system.switch_cpus.dtb.wrAccesses            12051729                       # TLB accesses on write requests
system.switch_cpus.dtb.rdMisses                    10                       # TLB misses on read requests
system.switch_cpus.dtb.wrMisses                707094                       # TLB misses on write requests
system.switch_cpus.dtb.walker.power_state.pwrStateResidencyTicks::UNDEFINED 128950767500                       # Cumulative time (in ticks) in various power states
system.switch_cpus.fetch.icacheStallCycles        43780                       # Number of cycles fetch is stalled on an Icache miss
system.switch_cpus.fetch.insts               11389441                       # Number of instructions fetch has processed
system.switch_cpus.fetch.branches             1631756                       # Number of branches that fetch encountered
system.switch_cpus.fetch.predictedBranches      1592858                       # Number of branches that fetch has predicted taken
system.switch_cpus.fetch.cycles             255613173                       # Number of cycles fetch has run and was not squashing or blocked
system.switch_cpus.fetch.squashCycles           57468                       # Number of cycles fetch has spent squashing
system.switch_cpus.fetch.cacheLines             34432                       # Number of cache lines fetched
system.switch_cpus.fetch.icacheSquashes          1628                       # Number of outstanding Icache misses that were squashed
system.switch_cpus.fetch.nisnDist::samples    255685687                       # Number of instructions fetched each cycle (Total)
system.switch_cpus.fetch.nisnDist::mean      0.089041                       # Number of instructions fetched each cycle (Total)
system.switch_cpus.fetch.nisnDist::stdev     0.764014                       # Number of instructions fetched each cycle (Total)
system.switch_cpus.fetch.nisnDist::underflows            0      0.00%      0.00% # Number of instructions fetched each cycle (Total)
system.switch_cpus.fetch.nisnDist::0        251717412     98.45%     98.45% # Number of instructions fetched each cycle (Total)
system.switch_cpus.fetch.nisnDist::1             2473      0.00%     98.45% # Number of instructions fetched each cycle (Total)
system.switch_cpus.fetch.nisnDist::2           709565      0.28%     98.73% # Number of instructions fetched each cycle (Total)
system.switch_cpus.fetch.nisnDist::3             2879      0.00%     98.73% # Number of instructions fetched each cycle (Total)
system.switch_cpus.fetch.nisnDist::4           730445      0.29%     99.01% # Number of instructions fetched each cycle (Total)
system.switch_cpus.fetch.nisnDist::5             8242      0.00%     99.02% # Number of instructions fetched each cycle (Total)
system.switch_cpus.fetch.nisnDist::6           869715      0.34%     99.36% # Number of instructions fetched each cycle (Total)
system.switch_cpus.fetch.nisnDist::7             4761      0.00%     99.36% # Number of instructions fetched each cycle (Total)
system.switch_cpus.fetch.nisnDist::8          1640195      0.64%    100.00% # Number of instructions fetched each cycle (Total)
system.switch_cpus.fetch.nisnDist::overflows            0      0.00%    100.00% # Number of instructions fetched each cycle (Total)
system.switch_cpus.fetch.nisnDist::min_value            0                       # Number of instructions fetched each cycle (Total)
system.switch_cpus.fetch.nisnDist::max_value            8                       # Number of instructions fetched each cycle (Total)
system.switch_cpus.fetch.nisnDist::total    255685687                       # Number of instructions fetched each cycle (Total)
system.switch_cpus.fetch.branchRate          0.006382                       # Number of branch fetches per cycle
system.switch_cpus.fetch.rate                0.044544                       # Number of inst fetches per cycle
system.switch_cpus.itb.rdAccesses                   0                       # TLB accesses on read requests
system.switch_cpus.itb.wrAccesses               34432                       # TLB accesses on write requests
system.switch_cpus.itb.rdMisses                     0                       # TLB misses on read requests
system.switch_cpus.itb.wrMisses                    10                       # TLB misses on write requests
system.switch_cpus.itb.walker.power_state.pwrStateResidencyTicks::UNDEFINED 128950767500                       # Cumulative time (in ticks) in various power states
system.switch_cpus.lsq0.forwLoads                 361                       # Number of loads that had data forwarded from stores
system.switch_cpus.lsq0.squashedLoads           22898                       # Number of loads squashed
system.switch_cpus.lsq0.ignoredResponses           10                       # Number of memory responses ignored because the instruction is squashed
system.switch_cpus.lsq0.memOrderViolation           16                       # Number of memory ordering violations
system.switch_cpus.lsq0.squashedStores         739258                       # Number of stores squashed
system.switch_cpus.lsq0.rescheduledLoads            0                       # Number of loads that were rescheduled
system.switch_cpus.lsq0.blockedByCache              2                       # Number of times an access to memory failed due to the cache being blocked
system.switch_cpus.power_state.pwrStateResidencyTicks::OFF 128950767500                       # Cumulative time (in ticks) in various power states
system.switch_cpus.rename.squashCycles          28669                       # Number of cycles rename is squashing
system.switch_cpus.rename.idleCycles          1740691                       # Number of cycles rename is idle
system.switch_cpus.rename.blockCycles       118239850                       # Number of cycles rename is blocking
system.switch_cpus.rename.serializeStallCycles            0                       # count of cycles rename stalledfor serializing inst
system.switch_cpus.rename.runCycles           1852064                       # Number of cycles rename is running
system.switch_cpus.rename.unblockCycles     133824410                       # Number of cycles rename is unblocking
system.switch_cpus.rename.renamedInsts       21518107                       # Number of instructions processed by rename
system.switch_cpus.rename.ROBFullEvents           143                       # Number of times rename has blocked due to ROB full
system.switch_cpus.rename.IQFullEvents           1289                       # Number of times rename has blocked due to IQ full
system.switch_cpus.rename.SQFullEvents      133822051                       # Number of times rename has blocked due to SQ full
system.switch_cpus.rename.renamedOperands     14142455                       # Number of destination operands rename has renamed
system.switch_cpus.rename.lookups            68782526                       # Number of register rename lookups that rename has made
system.switch_cpus.rename.intLookups         33684814                       # Number of integer rename lookups
system.switch_cpus.rename.fpLookups          12043114                       # Number of floating rename lookups
system.switch_cpus.rename.committedMaps      12982492                       # Number of HB maps that are committed
system.switch_cpus.rename.undoneMaps          1159954                       # Number of HB maps that are undone due to squashing
system.switch_cpus.rename.serializing               0                       # count of serializing insts renamed
system.switch_cpus.rename.tempSerializing            0                       # count of temporary serializing insts renamed
system.switch_cpus.rename.skidInsts          15678307                       # count of insts added to the skid buffer
system.switch_cpus.rob.reads                276496142                       # The number of ROB reads
system.switch_cpus.rob.writes                42935843                       # The number of ROB writes
system.switch_cpus.thread_0.numInsts         10000000                       # Number of Instructions committed
system.switch_cpus.thread_0.numOps           19993690                       # Number of Ops committed
system.switch_cpus.thread_0.numMemRefs              0                       # Number of Memory References
system.tol2bus.trans_dist::ReadResp               201                       # Transaction distribution
system.tol2bus.trans_dist::WritebackDirty      2822610                       # Transaction distribution
system.tol2bus.trans_dist::WritebackClean           68                       # Transaction distribution
system.tol2bus.trans_dist::CleanEvict            3234                       # Transaction distribution
system.tol2bus.trans_dist::ReadExReq          1414475                       # Transaction distribution
system.tol2bus.trans_dist::ReadExResp         1414474                       # Transaction distribution
system.tol2bus.trans_dist::ReadCleanReq            92                       # Transaction distribution
system.tol2bus.trans_dist::ReadSharedReq          109                       # Transaction distribution
system.tol2bus.pkt_count_system.cpu.icache.mem_side_port::system.l2.cpu_side_port          252                       # Packet count per connected requestor and responder (bytes)
system.tol2bus.pkt_count_system.cpu.dcache.mem_side_port::system.l2.cpu_side_port      4243750                       # Packet count per connected requestor and responder (bytes)
system.tol2bus.pkt_count::total               4244002                       # Packet count per connected requestor and responder (bytes)
system.tol2bus.pkt_size_system.cpu.icache.mem_side_port::system.l2.cpu_side_port        10240                       # Cumulative packet size per connected requestor and responder (bytes)
system.tol2bus.pkt_size_system.cpu.dcache.mem_side_port::system.l2.cpu_side_port    181064256                       # Cumulative packet size per connected requestor and responder (bytes)
system.tol2bus.pkt_size::total              181074496                       # Cumulative packet size per connected requestor and responder (bytes)
system.tol2bus.snoops                         1411261                       # Total snoops (count)
system.tol2bus.snoopTraffic                  90116096                       # Total snoop traffic (bytes)
system.tol2bus.snoop_fanout::samples          2825937                       # Request fanout histogram
system.tol2bus.snoop_fanout::mean            0.000298                       # Request fanout histogram
system.tol2bus.snoop_fanout::stdev           0.017269                       # Request fanout histogram
system.tol2bus.snoop_fanout::underflows             0      0.00%      0.00% # Request fanout histogram
system.tol2bus.snoop_fanout::0                2825094     99.97%     99.97% # Request fanout histogram
system.tol2bus.snoop_fanout::1                    843      0.03%    100.00% # Request fanout histogram
system.tol2bus.snoop_fanout::2                      0      0.00%    100.00% # Request fanout histogram
system.tol2bus.snoop_fanout::3                      0      0.00%    100.00% # Request fanout histogram
system.tol2bus.snoop_fanout::4                      0      0.00%    100.00% # Request fanout histogram
system.tol2bus.snoop_fanout::overflows              0      0.00%    100.00% # Request fanout histogram
system.tol2bus.snoop_fanout::min_value              0                       # Request fanout histogram
system.tol2bus.snoop_fanout::max_value              1                       # Request fanout histogram
system.tol2bus.snoop_fanout::total            2825937                       # Request fanout histogram
system.tol2bus.power_state.pwrStateResidencyTicks::UNDEFINED 128950767500                       # Cumulative time (in ticks) in various power states
system.tol2bus.reqLayer0.occupancy         2829277500                       # Layer occupancy (ticks)
system.tol2bus.reqLayer0.utilization              2.2                       # Layer utilization (%)
system.tol2bus.respLayer0.occupancy            138000                       # Layer occupancy (ticks)
system.tol2bus.respLayer0.utilization             0.0                       # Layer utilization (%)
system.tol2bus.respLayer1.occupancy        2121874500                       # Layer occupancy (ticks)
system.tol2bus.respLayer1.utilization             1.7                       # Layer utilization (%)
system.voltage_domain.voltage                       1                       # Voltage in Volts

---------- End Simulation Statistics   ----------
