
---------- Begin Simulation Statistics ----------
final_tick                                 3894782000                       # Number of ticks from beginning of simulation (restored from checkpoints and never reset)
host_inst_rate                                 227530                       # Simulator instruction rate (inst/s)
host_mem_usage                                8578460                       # Number of bytes of host memory used
host_op_rate                                   414732                       # Simulator op (including micro ops) rate (op/s)
host_seconds                                    48.35                       # Real time elapsed on the host
host_tick_rate                               51980178                       # Simulator tick rate (ticks/s)
sim_freq                                 1000000000000                       # Frequency of simulated ticks
sim_insts                                    11000001                       # Number of instructions simulated
sim_ops                                      20050437                       # Number of ops (including micro ops) simulated
sim_seconds                                  0.002513                       # Number of seconds simulated
sim_ticks                                  2513008000                       # Number of ticks simulated
system.cpu.committedInsts                           0                       # Number of instructions committed
system.cpu.committedOps                             0                       # Number of ops (including micro ops) committed
system.cpu.idle_fraction                            0                       # Percentage of idle cycles
system.cpu.not_idle_fraction                        1                       # Percentage of non-idle cycles
system.cpu.numCycles                                0                       # number of cpu cycles simulated
system.cpu.numWorkItemsCompleted                    0                       # number of work items this cpu completed
system.cpu.numWorkItemsStarted                      0                       # number of work items this cpu started
system.cpu.num_busy_cycles                          0                       # Number of busy cycles
system.cpu.num_conditional_control_insts            0                       # number of instructions that are conditional controls
system.cpu.num_fp_alu_accesses                      0                       # Number of float alu accesses
system.cpu.num_fp_insts                             0                       # number of float instructions
system.cpu.num_fp_register_reads                    0                       # number of times the floating registers were read
system.cpu.num_fp_register_writes                   0                       # number of times the floating registers were written
system.cpu.num_func_calls                           0                       # number of times a function call or return occured
system.cpu.num_idle_cycles                          0                       # Number of idle cycles
system.cpu.num_int_alu_accesses                     0                       # Number of integer alu accesses
system.cpu.num_int_insts                            0                       # number of integer instructions
system.cpu.num_int_register_reads                   0                       # number of times the integer registers were read
system.cpu.num_int_register_writes                  0                       # number of times the integer registers were written
system.cpu.num_load_insts                           0                       # Number of load instructions
system.cpu.num_mem_refs                             0                       # number of memory refs
system.cpu.num_store_insts                          0                       # Number of store instructions
system.cpu.num_vec_alu_accesses                     0                       # Number of vector alu accesses
system.cpu.num_vec_insts                            0                       # number of vector instructions
system.cpu.num_vec_register_reads                   0                       # number of times the vector registers were read
system.cpu.num_vec_register_writes                  0                       # number of times the vector registers were written
system.cpu.op_class::No_OpClass                     0                       # Class of executed instruction
system.cpu.op_class::IntAlu                         0                       # Class of executed instruction
system.cpu.op_class::IntMult                        0                       # Class of executed instruction
system.cpu.op_class::IntDiv                         0                       # Class of executed instruction
system.cpu.op_class::FloatAdd                       0                       # Class of executed instruction
system.cpu.op_class::FloatCmp                       0                       # Class of executed instruction
system.cpu.op_class::FloatCvt                       0                       # Class of executed instruction
system.cpu.op_class::FloatMult                      0                       # Class of executed instruction
system.cpu.op_class::FloatMultAcc                   0                       # Class of executed instruction
system.cpu.op_class::FloatDiv                       0                       # Class of executed instruction
system.cpu.op_class::FloatMisc                      0                       # Class of executed instruction
system.cpu.op_class::FloatSqrt                      0                       # Class of executed instruction
system.cpu.op_class::SimdAdd                        0                       # Class of executed instruction
system.cpu.op_class::SimdAddAcc                     0                       # Class of executed instruction
system.cpu.op_class::SimdAlu                        0                       # Class of executed instruction
system.cpu.op_class::SimdCmp                        0                       # Class of executed instruction
system.cpu.op_class::SimdCvt                        0                       # Class of executed instruction
system.cpu.op_class::SimdMisc                       0                       # Class of executed instruction
system.cpu.op_class::SimdMult                       0                       # Class of executed instruction
system.cpu.op_class::SimdMultAcc                    0                       # Class of executed instruction
system.cpu.op_class::SimdShift                      0                       # Class of executed instruction
system.cpu.op_class::SimdShiftAcc                   0                       # Class of executed instruction
system.cpu.op_class::SimdDiv                        0                       # Class of executed instruction
system.cpu.op_class::SimdSqrt                       0                       # Class of executed instruction
system.cpu.op_class::SimdFloatAdd                   0                       # Class of executed instruction
system.cpu.op_class::SimdFloatAlu                   0                       # Class of executed instruction
system.cpu.op_class::SimdFloatCmp                   0                       # Class of executed instruction
system.cpu.op_class::SimdFloatCvt                   0                       # Class of executed instruction
system.cpu.op_class::SimdFloatDiv                   0                       # Class of executed instruction
system.cpu.op_class::SimdFloatMisc                  0                       # Class of executed instruction
system.cpu.op_class::SimdFloatMult                  0                       # Class of executed instruction
system.cpu.op_class::SimdFloatMultAcc               0                       # Class of executed instruction
system.cpu.op_class::SimdFloatSqrt                  0                       # Class of executed instruction
system.cpu.op_class::SimdReduceAdd                  0                       # Class of executed instruction
system.cpu.op_class::SimdReduceAlu                  0                       # Class of executed instruction
system.cpu.op_class::SimdReduceCmp                  0                       # Class of executed instruction
system.cpu.op_class::SimdFloatReduceAdd             0                       # Class of executed instruction
system.cpu.op_class::SimdFloatReduceCmp             0                       # Class of executed instruction
system.cpu.op_class::SimdAes                        0                       # Class of executed instruction
system.cpu.op_class::SimdAesMix                     0                       # Class of executed instruction
system.cpu.op_class::SimdSha1Hash                   0                       # Class of executed instruction
system.cpu.op_class::SimdSha1Hash2                  0                       # Class of executed instruction
system.cpu.op_class::SimdSha256Hash                 0                       # Class of executed instruction
system.cpu.op_class::SimdSha256Hash2                0                       # Class of executed instruction
system.cpu.op_class::SimdShaSigma2                  0                       # Class of executed instruction
system.cpu.op_class::SimdShaSigma3                  0                       # Class of executed instruction
system.cpu.op_class::SimdPredAlu                    0                       # Class of executed instruction
system.cpu.op_class::MemRead                        0                       # Class of executed instruction
system.cpu.op_class::MemWrite                       0                       # Class of executed instruction
system.cpu.op_class::FloatMemRead                   0                       # Class of executed instruction
system.cpu.op_class::FloatMemWrite                  0                       # Class of executed instruction
system.cpu.op_class::IprAccess                      0                       # Class of executed instruction
system.cpu.op_class::InstPrefetch                   0                       # Class of executed instruction
system.cpu.op_class::total                          0                       # Class of executed instruction
system.cpu.workload.numSyscalls                     3                       # Number of system calls
system.membus.snoop_filter.hit_multi_requests            0                       # Number of requests hitting in the snoop filter with multiple (>1) holders of the requested data.
system.membus.snoop_filter.hit_multi_snoops            0                       # Number of snoops hitting in the snoop filter with multiple (>1) holders of the requested data.
system.membus.snoop_filter.hit_single_requests         6695                       # Number of requests hitting in the snoop filter with a single holder of the requested data.
system.membus.snoop_filter.hit_single_snoops            0                       # Number of snoops hitting in the snoop filter with a single holder of the requested data.
system.membus.snoop_filter.tot_requests         16079                       # Total number of requests made to the snoop filter.
system.membus.snoop_filter.tot_snoops               0                       # Total number of snoops made to the snoop filter.
system.switch_cpus.cc_regfile_reads           3889617                       # number of cc regfile reads
system.switch_cpus.cc_regfile_writes          3887965                       # number of cc regfile writes
system.switch_cpus.committedInsts            10000000                       # Number of Instructions Simulated
system.switch_cpus.committedOps              17613021                       # Number of Ops (including micro ops) Simulated
system.switch_cpus.cpi                       0.502602                       # CPI: Cycles Per Instruction
system.switch_cpus.cpi_total                 0.502602                       # CPI: Total CPI of All Threads
system.switch_cpus.fp_regfile_reads          12986214                       # number of floating regfile reads
system.switch_cpus.fp_regfile_writes          7315522                       # number of floating regfile writes
system.switch_cpus.idleCycles                     294                       # Total number of cycles that the CPU has spent unscheduled due to idling
system.switch_cpus.iew.branchMispredicts          153                       # Number of branch mispredicts detected at execute
system.switch_cpus.iew.exec_branches          1047051                       # Number of branches executed
system.switch_cpus.iew.exec_nop                     0                       # number of nop insts executed
system.switch_cpus.iew.exec_rate             3.509440                       # Inst execution rate
system.switch_cpus.iew.exec_refs              2691479                       # number of memory reference insts executed
system.switch_cpus.iew.exec_stores             449559                       # Number of stores executed
system.switch_cpus.iew.exec_swp                     0                       # number of swp insts executed
system.switch_cpus.iew.iewBlockCycles            4467                       # Number of cycles IEW is blocking
system.switch_cpus.iew.iewDispLoadInsts       2241997                       # Number of dispatched load instructions
system.switch_cpus.iew.iewDispNonSpecInsts            0                       # Number of dispatched non-speculative instructions
system.switch_cpus.iew.iewDispSquashedInsts           20                       # Number of squashed instructions skipped by dispatch
system.switch_cpus.iew.iewDispStoreInsts       450003                       # Number of dispatched store instructions
system.switch_cpus.iew.iewDispatchedInsts     17645409                       # Number of instructions dispatched to IQ
system.switch_cpus.iew.iewExecLoadInsts       2241920                       # Number of load instructions executed
system.switch_cpus.iew.iewExecSquashedInsts          413                       # Number of squashed instructions skipped in execute
system.switch_cpus.iew.iewExecutedInsts      17638502                       # Number of executed instructions
system.switch_cpus.iew.iewIQFullEvents             26                       # Number of times the IQ has become full, causing a stall
system.switch_cpus.iew.iewIdleCycles                0                       # Number of cycles IEW is idle
system.switch_cpus.iew.iewLSQFullEvents           345                       # Number of times the LSQ has become full, causing a stall
system.switch_cpus.iew.iewSquashCycles            282                       # Number of cycles IEW is squashing
system.switch_cpus.iew.iewUnblockCycles           384                       # Number of cycles IEW is unblocking
system.switch_cpus.iew.memOrderViolationEvents            9                       # Number of memory order violations
system.switch_cpus.iew.predictedNotTakenIncorrect          126                       # Number of branches that were predicted not taken incorrectly
system.switch_cpus.iew.predictedTakenIncorrect           27                       # Number of branches that were predicted taken incorrectly
system.switch_cpus.iew.wb_consumers          23521248                       # num instructions consuming a value
system.switch_cpus.iew.wb_count              17637801                       # cumulative count of insts written-back
system.switch_cpus.iew.wb_fanout             0.586092                       # average fanout of values written-back
system.switch_cpus.iew.wb_producers          13785604                       # num instructions producing a value
system.switch_cpus.iew.wb_rate               3.509301                       # insts written-back per cycle
system.switch_cpus.iew.wb_sent               17638070                       # cumulative count of insts sent to commit
system.switch_cpus.int_regfile_reads         16751143                       # number of integer regfile reads
system.switch_cpus.int_regfile_writes         8527056                       # number of integer regfile writes
system.switch_cpus.ipc                       1.989647                       # IPC: Instructions Per Cycle
system.switch_cpus.ipc_total                 1.989647                       # IPC: Total IPC of All Threads
system.switch_cpus.iq.FU_type_0::No_OpClass       299184      1.70%      1.70% # Type of FU issued
system.switch_cpus.iq.FU_type_0::IntAlu       9124241     51.73%     53.42% # Type of FU issued
system.switch_cpus.iq.FU_type_0::IntMult          307      0.00%     53.43% # Type of FU issued
system.switch_cpus.iq.FU_type_0::IntDiv             0      0.00%     53.43% # Type of FU issued
system.switch_cpus.iq.FU_type_0::FloatAdd       448284      2.54%     55.97% # Type of FU issued
system.switch_cpus.iq.FU_type_0::FloatCmp            0      0.00%     55.97% # Type of FU issued
system.switch_cpus.iq.FU_type_0::FloatCvt            0      0.00%     55.97% # Type of FU issued
system.switch_cpus.iq.FU_type_0::FloatMult            0      0.00%     55.97% # Type of FU issued
system.switch_cpus.iq.FU_type_0::FloatMultAcc            0      0.00%     55.97% # Type of FU issued
system.switch_cpus.iq.FU_type_0::FloatDiv            0      0.00%     55.97% # Type of FU issued
system.switch_cpus.iq.FU_type_0::FloatMisc            0      0.00%     55.97% # Type of FU issued
system.switch_cpus.iq.FU_type_0::FloatSqrt            0      0.00%     55.97% # Type of FU issued
system.switch_cpus.iq.FU_type_0::SimdAdd            0      0.00%     55.97% # Type of FU issued
system.switch_cpus.iq.FU_type_0::SimdAddAcc            0      0.00%     55.97% # Type of FU issued
system.switch_cpus.iq.FU_type_0::SimdAlu       896309      5.08%     61.05% # Type of FU issued
system.switch_cpus.iq.FU_type_0::SimdCmp            0      0.00%     61.05% # Type of FU issued
system.switch_cpus.iq.FU_type_0::SimdCvt            0      0.00%     61.05% # Type of FU issued
system.switch_cpus.iq.FU_type_0::SimdMisc       895781      5.08%     66.13% # Type of FU issued
system.switch_cpus.iq.FU_type_0::SimdMult            0      0.00%     66.13% # Type of FU issued
system.switch_cpus.iq.FU_type_0::SimdMultAcc            0      0.00%     66.13% # Type of FU issued
system.switch_cpus.iq.FU_type_0::SimdShift            0      0.00%     66.13% # Type of FU issued
system.switch_cpus.iq.FU_type_0::SimdShiftAcc            0      0.00%     66.13% # Type of FU issued
system.switch_cpus.iq.FU_type_0::SimdDiv            0      0.00%     66.13% # Type of FU issued
system.switch_cpus.iq.FU_type_0::SimdSqrt            0      0.00%     66.13% # Type of FU issued
system.switch_cpus.iq.FU_type_0::SimdFloatAdd      1492138      8.46%     74.59% # Type of FU issued
system.switch_cpus.iq.FU_type_0::SimdFloatAlu            0      0.00%     74.59% # Type of FU issued
system.switch_cpus.iq.FU_type_0::SimdFloatCmp            0      0.00%     74.59% # Type of FU issued
system.switch_cpus.iq.FU_type_0::SimdFloatCvt       746251      4.23%     78.82% # Type of FU issued
system.switch_cpus.iq.FU_type_0::SimdFloatDiv            0      0.00%     78.82% # Type of FU issued
system.switch_cpus.iq.FU_type_0::SimdFloatMisc            0      0.00%     78.82% # Type of FU issued
system.switch_cpus.iq.FU_type_0::SimdFloatMult      1044863      5.92%     84.74% # Type of FU issued
system.switch_cpus.iq.FU_type_0::SimdFloatMultAcc            0      0.00%     84.74% # Type of FU issued
system.switch_cpus.iq.FU_type_0::SimdFloatSqrt            0      0.00%     84.74% # Type of FU issued
system.switch_cpus.iq.FU_type_0::SimdReduceAdd            0      0.00%     84.74% # Type of FU issued
system.switch_cpus.iq.FU_type_0::SimdReduceAlu            0      0.00%     84.74% # Type of FU issued
system.switch_cpus.iq.FU_type_0::SimdReduceCmp            0      0.00%     84.74% # Type of FU issued
system.switch_cpus.iq.FU_type_0::SimdFloatReduceAdd            0      0.00%     84.74% # Type of FU issued
system.switch_cpus.iq.FU_type_0::SimdFloatReduceCmp            0      0.00%     84.74% # Type of FU issued
system.switch_cpus.iq.FU_type_0::SimdAes            0      0.00%     84.74% # Type of FU issued
system.switch_cpus.iq.FU_type_0::SimdAesMix            0      0.00%     84.74% # Type of FU issued
system.switch_cpus.iq.FU_type_0::SimdSha1Hash            0      0.00%     84.74% # Type of FU issued
system.switch_cpus.iq.FU_type_0::SimdSha1Hash2            0      0.00%     84.74% # Type of FU issued
system.switch_cpus.iq.FU_type_0::SimdSha256Hash            0      0.00%     84.74% # Type of FU issued
system.switch_cpus.iq.FU_type_0::SimdSha256Hash2            0      0.00%     84.74% # Type of FU issued
system.switch_cpus.iq.FU_type_0::SimdShaSigma2            0      0.00%     84.74% # Type of FU issued
system.switch_cpus.iq.FU_type_0::SimdShaSigma3            0      0.00%     84.74% # Type of FU issued
system.switch_cpus.iq.FU_type_0::SimdPredAlu            0      0.00%     84.74% # Type of FU issued
system.switch_cpus.iq.FU_type_0::MemRead       599168      3.40%     88.14% # Type of FU issued
system.switch_cpus.iq.FU_type_0::MemWrite       449478      2.55%     90.69% # Type of FU issued
system.switch_cpus.iq.FU_type_0::FloatMemRead      1642804      9.31%    100.00% # Type of FU issued
system.switch_cpus.iq.FU_type_0::FloatMemWrite          109      0.00%    100.00% # Type of FU issued
system.switch_cpus.iq.FU_type_0::IprAccess            0      0.00%    100.00% # Type of FU issued
system.switch_cpus.iq.FU_type_0::InstPrefetch            0      0.00%    100.00% # Type of FU issued
system.switch_cpus.iq.FU_type_0::total       17638917                       # Type of FU issued
system.switch_cpus.iq.fp_alu_accesses         7763775                       # Number of floating point alu accesses
system.switch_cpus.iq.fp_inst_queue_reads     15527539                       # Number of floating instruction queue reads
system.switch_cpus.iq.fp_inst_queue_wakeup_accesses      7763457                       # Number of floating instruction queue wakeup accesses
system.switch_cpus.iq.fp_inst_queue_writes      7777892                       # Number of floating instruction queue writes
system.switch_cpus.iq.fu_busy_cnt              148460                       # FU busy when requested
system.switch_cpus.iq.fu_busy_rate           0.008417                       # FU busy rate (busy events/executed inst)
system.switch_cpus.iq.fu_full::No_OpClass            0      0.00%      0.00% # attempts to use FU when none available
system.switch_cpus.iq.fu_full::IntAlu          148422     99.97%     99.97% # attempts to use FU when none available
system.switch_cpus.iq.fu_full::IntMult              0      0.00%     99.97% # attempts to use FU when none available
system.switch_cpus.iq.fu_full::IntDiv               0      0.00%     99.97% # attempts to use FU when none available
system.switch_cpus.iq.fu_full::FloatAdd             0      0.00%     99.97% # attempts to use FU when none available
system.switch_cpus.iq.fu_full::FloatCmp             0      0.00%     99.97% # attempts to use FU when none available
system.switch_cpus.iq.fu_full::FloatCvt             0      0.00%     99.97% # attempts to use FU when none available
system.switch_cpus.iq.fu_full::FloatMult            0      0.00%     99.97% # attempts to use FU when none available
system.switch_cpus.iq.fu_full::FloatMultAcc            0      0.00%     99.97% # attempts to use FU when none available
system.switch_cpus.iq.fu_full::FloatDiv             0      0.00%     99.97% # attempts to use FU when none available
system.switch_cpus.iq.fu_full::FloatMisc            0      0.00%     99.97% # attempts to use FU when none available
system.switch_cpus.iq.fu_full::FloatSqrt            0      0.00%     99.97% # attempts to use FU when none available
system.switch_cpus.iq.fu_full::SimdAdd              0      0.00%     99.97% # attempts to use FU when none available
system.switch_cpus.iq.fu_full::SimdAddAcc            0      0.00%     99.97% # attempts to use FU when none available
system.switch_cpus.iq.fu_full::SimdAlu              0      0.00%     99.97% # attempts to use FU when none available
system.switch_cpus.iq.fu_full::SimdCmp              0      0.00%     99.97% # attempts to use FU when none available
system.switch_cpus.iq.fu_full::SimdCvt              0      0.00%     99.97% # attempts to use FU when none available
system.switch_cpus.iq.fu_full::SimdMisc             0      0.00%     99.97% # attempts to use FU when none available
system.switch_cpus.iq.fu_full::SimdMult             0      0.00%     99.97% # attempts to use FU when none available
system.switch_cpus.iq.fu_full::SimdMultAcc            0      0.00%     99.97% # attempts to use FU when none available
system.switch_cpus.iq.fu_full::SimdShift            0      0.00%     99.97% # attempts to use FU when none available
system.switch_cpus.iq.fu_full::SimdShiftAcc            0      0.00%     99.97% # attempts to use FU when none available
system.switch_cpus.iq.fu_full::SimdDiv              0      0.00%     99.97% # attempts to use FU when none available
system.switch_cpus.iq.fu_full::SimdSqrt             0      0.00%     99.97% # attempts to use FU when none available
system.switch_cpus.iq.fu_full::SimdFloatAdd            0      0.00%     99.97% # attempts to use FU when none available
system.switch_cpus.iq.fu_full::SimdFloatAlu            0      0.00%     99.97% # attempts to use FU when none available
system.switch_cpus.iq.fu_full::SimdFloatCmp            0      0.00%     99.97% # attempts to use FU when none available
system.switch_cpus.iq.fu_full::SimdFloatCvt            0      0.00%     99.97% # attempts to use FU when none available
system.switch_cpus.iq.fu_full::SimdFloatDiv            0      0.00%     99.97% # attempts to use FU when none available
system.switch_cpus.iq.fu_full::SimdFloatMisc            0      0.00%     99.97% # attempts to use FU when none available
system.switch_cpus.iq.fu_full::SimdFloatMult            0      0.00%     99.97% # attempts to use FU when none available
system.switch_cpus.iq.fu_full::SimdFloatMultAcc            0      0.00%     99.97% # attempts to use FU when none available
system.switch_cpus.iq.fu_full::SimdFloatSqrt            0      0.00%     99.97% # attempts to use FU when none available
system.switch_cpus.iq.fu_full::SimdReduceAdd            0      0.00%     99.97% # attempts to use FU when none available
system.switch_cpus.iq.fu_full::SimdReduceAlu            0      0.00%     99.97% # attempts to use FU when none available
system.switch_cpus.iq.fu_full::SimdReduceCmp            0      0.00%     99.97% # attempts to use FU when none available
system.switch_cpus.iq.fu_full::SimdFloatReduceAdd            0      0.00%     99.97% # attempts to use FU when none available
system.switch_cpus.iq.fu_full::SimdFloatReduceCmp            0      0.00%     99.97% # attempts to use FU when none available
system.switch_cpus.iq.fu_full::SimdAes              0      0.00%     99.97% # attempts to use FU when none available
system.switch_cpus.iq.fu_full::SimdAesMix            0      0.00%     99.97% # attempts to use FU when none available
system.switch_cpus.iq.fu_full::SimdSha1Hash            0      0.00%     99.97% # attempts to use FU when none available
system.switch_cpus.iq.fu_full::SimdSha1Hash2            0      0.00%     99.97% # attempts to use FU when none available
system.switch_cpus.iq.fu_full::SimdSha256Hash            0      0.00%     99.97% # attempts to use FU when none available
system.switch_cpus.iq.fu_full::SimdSha256Hash2            0      0.00%     99.97% # attempts to use FU when none available
system.switch_cpus.iq.fu_full::SimdShaSigma2            0      0.00%     99.97% # attempts to use FU when none available
system.switch_cpus.iq.fu_full::SimdShaSigma3            0      0.00%     99.97% # attempts to use FU when none available
system.switch_cpus.iq.fu_full::SimdPredAlu            0      0.00%     99.97% # attempts to use FU when none available
system.switch_cpus.iq.fu_full::MemRead             18      0.01%     99.99% # attempts to use FU when none available
system.switch_cpus.iq.fu_full::MemWrite            11      0.01%     99.99% # attempts to use FU when none available
system.switch_cpus.iq.fu_full::FloatMemRead            2      0.00%    100.00% # attempts to use FU when none available
system.switch_cpus.iq.fu_full::FloatMemWrite            7      0.00%    100.00% # attempts to use FU when none available
system.switch_cpus.iq.fu_full::IprAccess            0      0.00%    100.00% # attempts to use FU when none available
system.switch_cpus.iq.fu_full::InstPrefetch            0      0.00%    100.00% # attempts to use FU when none available
system.switch_cpus.iq.int_alu_accesses        9724418                       # Number of integer alu accesses
system.switch_cpus.iq.int_inst_queue_reads     24924489                       # Number of integer instruction queue reads
system.switch_cpus.iq.int_inst_queue_wakeup_accesses      9874344                       # Number of integer instruction queue wakeup accesses
system.switch_cpus.iq.int_inst_queue_writes      9899794                       # Number of integer instruction queue writes
system.switch_cpus.iq.iqInstsAdded           17645409                       # Number of instructions added to the IQ (excludes non-spec)
system.switch_cpus.iq.iqInstsIssued          17638917                       # Number of instructions issued
system.switch_cpus.iq.iqSquashedInstsExamined        32268                       # Number of squashed instructions iterated over during squash; mainly for profiling
system.switch_cpus.iq.iqSquashedInstsIssued           14                       # Number of squashed instructions issued
system.switch_cpus.iq.iqSquashedOperandsExamined        21938                       # Number of squashed operands that are examined and possibly removed from graph
system.switch_cpus.iq.issued_per_cycle::samples      5025722                       # Number of insts issued each cycle
system.switch_cpus.iq.issued_per_cycle::mean     3.509728                       # Number of insts issued each cycle
system.switch_cpus.iq.issued_per_cycle::stdev     1.969734                       # Number of insts issued each cycle
system.switch_cpus.iq.issued_per_cycle::underflows            0      0.00%      0.00% # Number of insts issued each cycle
system.switch_cpus.iq.issued_per_cycle::0       130024      2.59%      2.59% # Number of insts issued each cycle
system.switch_cpus.iq.issued_per_cycle::1       676654     13.46%     16.05% # Number of insts issued each cycle
system.switch_cpus.iq.issued_per_cycle::2      1041801     20.73%     36.78% # Number of insts issued each cycle
system.switch_cpus.iq.issued_per_cycle::3       858831     17.09%     53.87% # Number of insts issued each cycle
system.switch_cpus.iq.issued_per_cycle::4       858298     17.08%     70.95% # Number of insts issued each cycle
system.switch_cpus.iq.issued_per_cycle::5       452894      9.01%     79.96% # Number of insts issued each cycle
system.switch_cpus.iq.issued_per_cycle::6       557568     11.09%     91.05% # Number of insts issued each cycle
system.switch_cpus.iq.issued_per_cycle::7       338118      6.73%     97.78% # Number of insts issued each cycle
system.switch_cpus.iq.issued_per_cycle::8       111534      2.22%    100.00% # Number of insts issued each cycle
system.switch_cpus.iq.issued_per_cycle::overflows            0      0.00%    100.00% # Number of insts issued each cycle
system.switch_cpus.iq.issued_per_cycle::min_value            0                       # Number of insts issued each cycle
system.switch_cpus.iq.issued_per_cycle::max_value            8                       # Number of insts issued each cycle
system.switch_cpus.iq.issued_per_cycle::total      5025722                       # Number of insts issued each cycle
system.switch_cpus.iq.rate                   3.509523                       # Inst issue rate
system.switch_cpus.iq.vec_alu_accesses              0                       # Number of vector alu accesses
system.switch_cpus.iq.vec_inst_queue_reads            0                       # Number of vector instruction queue reads
system.switch_cpus.iq.vec_inst_queue_wakeup_accesses            0                       # Number of vector instruction queue wakeup accesses
system.switch_cpus.iq.vec_inst_queue_writes            0                       # Number of vector instruction queue writes
system.switch_cpus.memDep0.conflictingLoads           37                       # Number of conflicting loads.
system.switch_cpus.memDep0.conflictingStores           68                       # Number of conflicting stores.
system.switch_cpus.memDep0.insertedLoads      2241997                       # Number of loads inserted to the mem dependence unit.
system.switch_cpus.memDep0.insertedStores       450003                       # Number of stores inserted to the mem dependence unit.
system.switch_cpus.misc_regfile_reads         5981181                       # number of misc regfile reads
system.switch_cpus.numCycles                  5026016                       # number of cpu cycles simulated
system.switch_cpus.numWorkItemsCompleted            0                       # number of work items this cpu completed
system.switch_cpus.numWorkItemsStarted              0                       # number of work items this cpu started
system.switch_cpus.timesIdled                       3                       # Number of times that the entire CPU went into an idle state and unscheduled itself
system.tol2bus.snoop_filter.hit_multi_requests            8                       # Number of requests hitting in the snoop filter with multiple (>1) holders of the requested data.
system.tol2bus.snoop_filter.hit_multi_snoops            0                       # Number of snoops hitting in the snoop filter with multiple (>1) holders of the requested data.
system.tol2bus.snoop_filter.hit_single_requests         9667                       # Number of requests hitting in the snoop filter with a single holder of the requested data.
system.tol2bus.snoop_filter.hit_single_snoops          982                       # Number of snoops hitting in the snoop filter with a single holder of the requested data.
system.tol2bus.snoop_filter.tot_requests        19338                       # Total number of requests made to the snoop filter.
system.tol2bus.snoop_filter.tot_snoops            982                       # Total number of snoops made to the snoop filter.
system.clk_domain.clock                          1000                       # Clock period in ticks
system.cpu.branchPred.lookups                       0                       # Number of BP lookups
system.cpu.branchPred.condPredicted                 0                       # Number of conditional branches predicted
system.cpu.branchPred.condIncorrect                 0                       # Number of conditional branches incorrect
system.cpu.branchPred.BTBLookups                    0                       # Number of BTB lookups
system.cpu.branchPred.BTBHits                       0                       # Number of BTB hits
system.cpu.branchPred.BTBHitPct                   nan                       # BTB Hit Percentage
system.cpu.branchPred.RASUsed                       0                       # Number of times the RAS was used to get a target.
system.cpu.branchPred.RASIncorrect                  0                       # Number of incorrect RAS predictions.
system.cpu.branchPred.indirectLookups               0                       # Number of indirect predictor lookups.
system.cpu.branchPred.indirectHits                  0                       # Number of indirect target hits.
system.cpu.branchPred.indirectMisses                0                       # Number of indirect misses.
system.cpu.branchPred.indirectMispredicted            0                       # Number of mispredicted indirect branches.
system.cpu.branchPred.tage.longestMatchProviderCorrect            0                       # Number of times TAGE Longest Match is the provider and the prediction is correct
system.cpu.branchPred.tage.altMatchProviderCorrect            0                       # Number of times TAGE Alt Match is the provider and the prediction is correct
system.cpu.branchPred.tage.bimodalAltMatchProviderCorrect            0                       # Number of times TAGE Alt Match is the bimodal and it is the provider and the prediction is correct
system.cpu.branchPred.tage.bimodalProviderCorrect            0                       # Number of times there are no hits on the TAGE tables and the bimodal prediction is correct
system.cpu.branchPred.tage.longestMatchProviderWrong            0                       # Number of times TAGE Longest Match is the provider and the prediction is wrong
system.cpu.branchPred.tage.altMatchProviderWrong            0                       # Number of times TAGE Alt Match is the provider and the prediction is wrong
system.cpu.branchPred.tage.bimodalAltMatchProviderWrong            0                       # Number of times TAGE Alt Match is the bimodal and it is the provider and the prediction is wrong
system.cpu.branchPred.tage.bimodalProviderWrong            0                       # Number of times there are no hits on the TAGE tables and the bimodal prediction is wrong
system.cpu.branchPred.tage.altMatchProviderWouldHaveHit            0                       # Number of times TAGE Longest Match is the provider, the prediction is wrong and Alt Match prediction was correct
system.cpu.branchPred.tage.longestMatchProviderWouldHaveHit            0                       # Number of times TAGE Alt Match is the provider, the prediction is wrong and Longest Match prediction was correct
system.cpu.branchPred.tage.longestMatchProvider::0            0                       # TAGE provider for longest match
system.cpu.branchPred.tage.longestMatchProvider::1            0                       # TAGE provider for longest match
system.cpu.branchPred.tage.longestMatchProvider::2            0                       # TAGE provider for longest match
system.cpu.branchPred.tage.longestMatchProvider::3            0                       # TAGE provider for longest match
system.cpu.branchPred.tage.longestMatchProvider::4            0                       # TAGE provider for longest match
system.cpu.branchPred.tage.longestMatchProvider::5            0                       # TAGE provider for longest match
system.cpu.branchPred.tage.longestMatchProvider::6            0                       # TAGE provider for longest match
system.cpu.branchPred.tage.longestMatchProvider::7            0                       # TAGE provider for longest match
system.cpu.branchPred.tage.altMatchProvider::0            0                       # TAGE provider for alt match
system.cpu.branchPred.tage.altMatchProvider::1            0                       # TAGE provider for alt match
system.cpu.branchPred.tage.altMatchProvider::2            0                       # TAGE provider for alt match
system.cpu.branchPred.tage.altMatchProvider::3            0                       # TAGE provider for alt match
system.cpu.branchPred.tage.altMatchProvider::4            0                       # TAGE provider for alt match
system.cpu.branchPred.tage.altMatchProvider::5            0                       # TAGE provider for alt match
system.cpu.branchPred.tage.altMatchProvider::6            0                       # TAGE provider for alt match
system.cpu.branchPred.tage.altMatchProvider::7            0                       # TAGE provider for alt match
system.cpu.dcache.demand_hits::.switch_cpus.data      2531031                       # number of demand (read+write) hits
system.cpu.dcache.demand_hits::total          2531031                       # number of demand (read+write) hits
system.cpu.dcache.overall_hits::.switch_cpus.data      2531031                       # number of overall hits
system.cpu.dcache.overall_hits::total         2531031                       # number of overall hits
system.cpu.dcache.demand_misses::.switch_cpus.data         9806                       # number of demand (read+write) misses
system.cpu.dcache.demand_misses::total           9806                       # number of demand (read+write) misses
system.cpu.dcache.overall_misses::.switch_cpus.data         9806                       # number of overall misses
system.cpu.dcache.overall_misses::total          9806                       # number of overall misses
system.cpu.dcache.demand_miss_latency::.switch_cpus.data    756149992                       # number of demand (read+write) miss cycles
system.cpu.dcache.demand_miss_latency::total    756149992                       # number of demand (read+write) miss cycles
system.cpu.dcache.overall_miss_latency::.switch_cpus.data    756149992                       # number of overall miss cycles
system.cpu.dcache.overall_miss_latency::total    756149992                       # number of overall miss cycles
system.cpu.dcache.demand_accesses::.switch_cpus.data      2540837                       # number of demand (read+write) accesses
system.cpu.dcache.demand_accesses::total      2540837                       # number of demand (read+write) accesses
system.cpu.dcache.overall_accesses::.switch_cpus.data      2540837                       # number of overall (read+write) accesses
system.cpu.dcache.overall_accesses::total      2540837                       # number of overall (read+write) accesses
system.cpu.dcache.demand_miss_rate::.switch_cpus.data     0.003859                       # miss rate for demand accesses
system.cpu.dcache.demand_miss_rate::total     0.003859                       # miss rate for demand accesses
system.cpu.dcache.overall_miss_rate::.switch_cpus.data     0.003859                       # miss rate for overall accesses
system.cpu.dcache.overall_miss_rate::total     0.003859                       # miss rate for overall accesses
system.cpu.dcache.demand_avg_miss_latency::.switch_cpus.data 77110.951662                       # average overall miss latency
system.cpu.dcache.demand_avg_miss_latency::total 77110.951662                       # average overall miss latency
system.cpu.dcache.overall_avg_miss_latency::.switch_cpus.data 77110.951662                       # average overall miss latency
system.cpu.dcache.overall_avg_miss_latency::total 77110.951662                       # average overall miss latency
system.cpu.dcache.blocked_cycles::no_mshrs          652                       # number of cycles access was blocked
system.cpu.dcache.blocked_cycles::no_targets            0                       # number of cycles access was blocked
system.cpu.dcache.blocked::no_mshrs                93                       # number of cycles access was blocked
system.cpu.dcache.blocked::no_targets               0                       # number of cycles access was blocked
system.cpu.dcache.avg_blocked_cycles::no_mshrs     7.010753                       # average number of cycles each access was blocked
system.cpu.dcache.avg_blocked_cycles::no_targets          nan                       # average number of cycles each access was blocked
system.cpu.dcache.writebacks::.writebacks         9561                       # number of writebacks
system.cpu.dcache.writebacks::total              9561                       # number of writebacks
system.cpu.dcache.demand_mshr_hits::.switch_cpus.data          162                       # number of demand (read+write) MSHR hits
system.cpu.dcache.demand_mshr_hits::total          162                       # number of demand (read+write) MSHR hits
system.cpu.dcache.overall_mshr_hits::.switch_cpus.data          162                       # number of overall MSHR hits
system.cpu.dcache.overall_mshr_hits::total          162                       # number of overall MSHR hits
system.cpu.dcache.demand_mshr_misses::.switch_cpus.data         9644                       # number of demand (read+write) MSHR misses
system.cpu.dcache.demand_mshr_misses::total         9644                       # number of demand (read+write) MSHR misses
system.cpu.dcache.overall_mshr_misses::.switch_cpus.data         9644                       # number of overall MSHR misses
system.cpu.dcache.overall_mshr_misses::total         9644                       # number of overall MSHR misses
system.cpu.dcache.demand_mshr_miss_latency::.switch_cpus.data    744666492                       # number of demand (read+write) MSHR miss cycles
system.cpu.dcache.demand_mshr_miss_latency::total    744666492                       # number of demand (read+write) MSHR miss cycles
system.cpu.dcache.overall_mshr_miss_latency::.switch_cpus.data    744666492                       # number of overall MSHR miss cycles
system.cpu.dcache.overall_mshr_miss_latency::total    744666492                       # number of overall MSHR miss cycles
system.cpu.dcache.demand_mshr_miss_rate::.switch_cpus.data     0.003796                       # mshr miss rate for demand accesses
system.cpu.dcache.demand_mshr_miss_rate::total     0.003796                       # mshr miss rate for demand accesses
system.cpu.dcache.overall_mshr_miss_rate::.switch_cpus.data     0.003796                       # mshr miss rate for overall accesses
system.cpu.dcache.overall_mshr_miss_rate::total     0.003796                       # mshr miss rate for overall accesses
system.cpu.dcache.demand_avg_mshr_miss_latency::.switch_cpus.data 77215.521775                       # average overall mshr miss latency
system.cpu.dcache.demand_avg_mshr_miss_latency::total 77215.521775                       # average overall mshr miss latency
system.cpu.dcache.overall_avg_mshr_miss_latency::.switch_cpus.data 77215.521775                       # average overall mshr miss latency
system.cpu.dcache.overall_avg_mshr_miss_latency::total 77215.521775                       # average overall mshr miss latency
system.cpu.dcache.replacements                   9643                       # number of replacements
system.cpu.dcache.ReadReq_hits::.switch_cpus.data      2091695                       # number of ReadReq hits
system.cpu.dcache.ReadReq_hits::total         2091695                       # number of ReadReq hits
system.cpu.dcache.ReadReq_misses::.switch_cpus.data          387                       # number of ReadReq misses
system.cpu.dcache.ReadReq_misses::total           387                       # number of ReadReq misses
system.cpu.dcache.ReadReq_miss_latency::.switch_cpus.data      5081000                       # number of ReadReq miss cycles
system.cpu.dcache.ReadReq_miss_latency::total      5081000                       # number of ReadReq miss cycles
system.cpu.dcache.ReadReq_accesses::.switch_cpus.data      2092082                       # number of ReadReq accesses(hits+misses)
system.cpu.dcache.ReadReq_accesses::total      2092082                       # number of ReadReq accesses(hits+misses)
system.cpu.dcache.ReadReq_miss_rate::.switch_cpus.data     0.000185                       # miss rate for ReadReq accesses
system.cpu.dcache.ReadReq_miss_rate::total     0.000185                       # miss rate for ReadReq accesses
system.cpu.dcache.ReadReq_avg_miss_latency::.switch_cpus.data 13129.198966                       # average ReadReq miss latency
system.cpu.dcache.ReadReq_avg_miss_latency::total 13129.198966                       # average ReadReq miss latency
system.cpu.dcache.ReadReq_mshr_hits::.switch_cpus.data          161                       # number of ReadReq MSHR hits
system.cpu.dcache.ReadReq_mshr_hits::total          161                       # number of ReadReq MSHR hits
system.cpu.dcache.ReadReq_mshr_misses::.switch_cpus.data          226                       # number of ReadReq MSHR misses
system.cpu.dcache.ReadReq_mshr_misses::total          226                       # number of ReadReq MSHR misses
system.cpu.dcache.ReadReq_mshr_miss_latency::.switch_cpus.data      3026500                       # number of ReadReq MSHR miss cycles
system.cpu.dcache.ReadReq_mshr_miss_latency::total      3026500                       # number of ReadReq MSHR miss cycles
system.cpu.dcache.ReadReq_mshr_miss_rate::.switch_cpus.data     0.000108                       # mshr miss rate for ReadReq accesses
system.cpu.dcache.ReadReq_mshr_miss_rate::total     0.000108                       # mshr miss rate for ReadReq accesses
system.cpu.dcache.ReadReq_avg_mshr_miss_latency::.switch_cpus.data 13391.592920                       # average ReadReq mshr miss latency
system.cpu.dcache.ReadReq_avg_mshr_miss_latency::total 13391.592920                       # average ReadReq mshr miss latency
system.cpu.dcache.WriteReq_hits::.switch_cpus.data       439336                       # number of WriteReq hits
system.cpu.dcache.WriteReq_hits::total         439336                       # number of WriteReq hits
system.cpu.dcache.WriteReq_misses::.switch_cpus.data         9419                       # number of WriteReq misses
system.cpu.dcache.WriteReq_misses::total         9419                       # number of WriteReq misses
system.cpu.dcache.WriteReq_miss_latency::.switch_cpus.data    751068992                       # number of WriteReq miss cycles
system.cpu.dcache.WriteReq_miss_latency::total    751068992                       # number of WriteReq miss cycles
system.cpu.dcache.WriteReq_accesses::.switch_cpus.data       448755                       # number of WriteReq accesses(hits+misses)
system.cpu.dcache.WriteReq_accesses::total       448755                       # number of WriteReq accesses(hits+misses)
system.cpu.dcache.WriteReq_miss_rate::.switch_cpus.data     0.020989                       # miss rate for WriteReq accesses
system.cpu.dcache.WriteReq_miss_rate::total     0.020989                       # miss rate for WriteReq accesses
system.cpu.dcache.WriteReq_avg_miss_latency::.switch_cpus.data 79739.780444                       # average WriteReq miss latency
system.cpu.dcache.WriteReq_avg_miss_latency::total 79739.780444                       # average WriteReq miss latency
system.cpu.dcache.WriteReq_mshr_hits::.switch_cpus.data            1                       # number of WriteReq MSHR hits
system.cpu.dcache.WriteReq_mshr_hits::total            1                       # number of WriteReq MSHR hits
system.cpu.dcache.WriteReq_mshr_misses::.switch_cpus.data         9418                       # number of WriteReq MSHR misses
system.cpu.dcache.WriteReq_mshr_misses::total         9418                       # number of WriteReq MSHR misses
system.cpu.dcache.WriteReq_mshr_miss_latency::.switch_cpus.data    741639992                       # number of WriteReq MSHR miss cycles
system.cpu.dcache.WriteReq_mshr_miss_latency::total    741639992                       # number of WriteReq MSHR miss cycles
system.cpu.dcache.WriteReq_mshr_miss_rate::.switch_cpus.data     0.020987                       # mshr miss rate for WriteReq accesses
system.cpu.dcache.WriteReq_mshr_miss_rate::total     0.020987                       # mshr miss rate for WriteReq accesses
system.cpu.dcache.WriteReq_avg_mshr_miss_latency::.switch_cpus.data 78747.079210                       # average WriteReq mshr miss latency
system.cpu.dcache.WriteReq_avg_mshr_miss_latency::total 78747.079210                       # average WriteReq mshr miss latency
system.cpu.dcache.power_state.pwrStateResidencyTicks::UNDEFINED   3894782000                       # Cumulative time (in ticks) in various power states
system.cpu.dcache.tags.tagsinuse                 1024                       # Cycle average of tags in use
system.cpu.dcache.tags.total_refs             2716907                       # Total number of references to valid blocks.
system.cpu.dcache.tags.sampled_refs             10667                       # Sample count of references to valid blocks.
system.cpu.dcache.tags.avg_refs            254.702072                       # Average number of references to valid blocks.
system.cpu.dcache.tags.warmup_cycle                 0                       # Cycle when the warmup percentage was hit.
system.cpu.dcache.tags.occ_blocks::.cpu.data    65.526640                       # Average occupied blocks per requestor
system.cpu.dcache.tags.occ_blocks::.switch_cpus.data   958.473360                       # Average occupied blocks per requestor
system.cpu.dcache.tags.occ_percent::.cpu.data     0.063991                       # Average percentage of cache occupancy
system.cpu.dcache.tags.occ_percent::.switch_cpus.data     0.936009                       # Average percentage of cache occupancy
system.cpu.dcache.tags.occ_percent::total            1                       # Average percentage of cache occupancy
system.cpu.dcache.tags.occ_task_id_blocks::1024         1024                       # Occupied blocks per task id
system.cpu.dcache.tags.age_task_id_blocks_1024::0           37                       # Occupied blocks per task id
system.cpu.dcache.tags.age_task_id_blocks_1024::1          366                       # Occupied blocks per task id
system.cpu.dcache.tags.age_task_id_blocks_1024::2          611                       # Occupied blocks per task id
system.cpu.dcache.tags.age_task_id_blocks_1024::3           10                       # Occupied blocks per task id
system.cpu.dcache.tags.occ_task_id_percent::1024            1                       # Percentage of cache occupancy per task id
system.cpu.dcache.tags.tag_accesses           5091317                       # Number of tag accesses
system.cpu.dcache.tags.data_accesses          5091317                       # Number of data accesses
system.cpu.dcache.tags.power_state.pwrStateResidencyTicks::UNDEFINED   3894782000                       # Cumulative time (in ticks) in various power states
system.cpu.dtb.rdAccesses                           0                       # TLB accesses on read requests
system.cpu.dtb.wrAccesses                           0                       # TLB accesses on write requests
system.cpu.dtb.rdMisses                             0                       # TLB misses on read requests
system.cpu.dtb.wrMisses                             0                       # TLB misses on write requests
system.cpu.dtb.walker.power_state.pwrStateResidencyTicks::UNDEFINED   3894782000                       # Cumulative time (in ticks) in various power states
system.cpu.dtb_walker_cache.blocked_cycles::no_mshrs            0                       # number of cycles access was blocked
system.cpu.dtb_walker_cache.blocked_cycles::no_targets            0                       # number of cycles access was blocked
system.cpu.dtb_walker_cache.blocked::no_mshrs            0                       # number of cycles access was blocked
system.cpu.dtb_walker_cache.blocked::no_targets            0                       # number of cycles access was blocked
system.cpu.dtb_walker_cache.avg_blocked_cycles::no_mshrs          nan                       # average number of cycles each access was blocked
system.cpu.dtb_walker_cache.avg_blocked_cycles::no_targets          nan                       # average number of cycles each access was blocked
system.cpu.dtb_walker_cache.replacements            0                       # number of replacements
system.cpu.dtb_walker_cache.power_state.pwrStateResidencyTicks::UNDEFINED   3894782000                       # Cumulative time (in ticks) in various power states
system.cpu.dtb_walker_cache.tags.tagsinuse            0                       # Cycle average of tags in use
system.cpu.dtb_walker_cache.tags.total_refs            0                       # Total number of references to valid blocks.
system.cpu.dtb_walker_cache.tags.sampled_refs            0                       # Sample count of references to valid blocks.
system.cpu.dtb_walker_cache.tags.avg_refs          nan                       # Average number of references to valid blocks.
system.cpu.dtb_walker_cache.tags.warmup_cycle            0                       # Cycle when the warmup percentage was hit.
system.cpu.dtb_walker_cache.tags.tag_accesses            0                       # Number of tag accesses
system.cpu.dtb_walker_cache.tags.data_accesses            0                       # Number of data accesses
system.cpu.dtb_walker_cache.tags.power_state.pwrStateResidencyTicks::UNDEFINED   3894782000                       # Cumulative time (in ticks) in various power states
system.cpu.icache.demand_hits::.switch_cpus.inst      1197429                       # number of demand (read+write) hits
system.cpu.icache.demand_hits::total          1197429                       # number of demand (read+write) hits
system.cpu.icache.overall_hits::.switch_cpus.inst      1197429                       # number of overall hits
system.cpu.icache.overall_hits::total         1197429                       # number of overall hits
system.cpu.icache.demand_misses::.switch_cpus.inst           38                       # number of demand (read+write) misses
system.cpu.icache.demand_misses::total             38                       # number of demand (read+write) misses
system.cpu.icache.overall_misses::.switch_cpus.inst           38                       # number of overall misses
system.cpu.icache.overall_misses::total            38                       # number of overall misses
system.cpu.icache.demand_miss_latency::.switch_cpus.inst      2476000                       # number of demand (read+write) miss cycles
system.cpu.icache.demand_miss_latency::total      2476000                       # number of demand (read+write) miss cycles
system.cpu.icache.overall_miss_latency::.switch_cpus.inst      2476000                       # number of overall miss cycles
system.cpu.icache.overall_miss_latency::total      2476000                       # number of overall miss cycles
system.cpu.icache.demand_accesses::.switch_cpus.inst      1197467                       # number of demand (read+write) accesses
system.cpu.icache.demand_accesses::total      1197467                       # number of demand (read+write) accesses
system.cpu.icache.overall_accesses::.switch_cpus.inst      1197467                       # number of overall (read+write) accesses
system.cpu.icache.overall_accesses::total      1197467                       # number of overall (read+write) accesses
system.cpu.icache.demand_miss_rate::.switch_cpus.inst     0.000032                       # miss rate for demand accesses
system.cpu.icache.demand_miss_rate::total     0.000032                       # miss rate for demand accesses
system.cpu.icache.overall_miss_rate::.switch_cpus.inst     0.000032                       # miss rate for overall accesses
system.cpu.icache.overall_miss_rate::total     0.000032                       # miss rate for overall accesses
system.cpu.icache.demand_avg_miss_latency::.switch_cpus.inst 65157.894737                       # average overall miss latency
system.cpu.icache.demand_avg_miss_latency::total 65157.894737                       # average overall miss latency
system.cpu.icache.overall_avg_miss_latency::.switch_cpus.inst 65157.894737                       # average overall miss latency
system.cpu.icache.overall_avg_miss_latency::total 65157.894737                       # average overall miss latency
system.cpu.icache.blocked_cycles::no_mshrs            0                       # number of cycles access was blocked
system.cpu.icache.blocked_cycles::no_targets            0                       # number of cycles access was blocked
system.cpu.icache.blocked::no_mshrs                 0                       # number of cycles access was blocked
system.cpu.icache.blocked::no_targets               0                       # number of cycles access was blocked
system.cpu.icache.avg_blocked_cycles::no_mshrs          nan                       # average number of cycles each access was blocked
system.cpu.icache.avg_blocked_cycles::no_targets          nan                       # average number of cycles each access was blocked
system.cpu.icache.writebacks::.writebacks           24                       # number of writebacks
system.cpu.icache.writebacks::total                24                       # number of writebacks
system.cpu.icache.demand_mshr_hits::.switch_cpus.inst           11                       # number of demand (read+write) MSHR hits
system.cpu.icache.demand_mshr_hits::total           11                       # number of demand (read+write) MSHR hits
system.cpu.icache.overall_mshr_hits::.switch_cpus.inst           11                       # number of overall MSHR hits
system.cpu.icache.overall_mshr_hits::total           11                       # number of overall MSHR hits
system.cpu.icache.demand_mshr_misses::.switch_cpus.inst           27                       # number of demand (read+write) MSHR misses
system.cpu.icache.demand_mshr_misses::total           27                       # number of demand (read+write) MSHR misses
system.cpu.icache.overall_mshr_misses::.switch_cpus.inst           27                       # number of overall MSHR misses
system.cpu.icache.overall_mshr_misses::total           27                       # number of overall MSHR misses
system.cpu.icache.demand_mshr_miss_latency::.switch_cpus.inst      1866500                       # number of demand (read+write) MSHR miss cycles
system.cpu.icache.demand_mshr_miss_latency::total      1866500                       # number of demand (read+write) MSHR miss cycles
system.cpu.icache.overall_mshr_miss_latency::.switch_cpus.inst      1866500                       # number of overall MSHR miss cycles
system.cpu.icache.overall_mshr_miss_latency::total      1866500                       # number of overall MSHR miss cycles
system.cpu.icache.demand_mshr_miss_rate::.switch_cpus.inst     0.000023                       # mshr miss rate for demand accesses
system.cpu.icache.demand_mshr_miss_rate::total     0.000023                       # mshr miss rate for demand accesses
system.cpu.icache.overall_mshr_miss_rate::.switch_cpus.inst     0.000023                       # mshr miss rate for overall accesses
system.cpu.icache.overall_mshr_miss_rate::total     0.000023                       # mshr miss rate for overall accesses
system.cpu.icache.demand_avg_mshr_miss_latency::.switch_cpus.inst 69129.629630                       # average overall mshr miss latency
system.cpu.icache.demand_avg_mshr_miss_latency::total 69129.629630                       # average overall mshr miss latency
system.cpu.icache.overall_avg_mshr_miss_latency::.switch_cpus.inst 69129.629630                       # average overall mshr miss latency
system.cpu.icache.overall_avg_mshr_miss_latency::total 69129.629630                       # average overall mshr miss latency
system.cpu.icache.replacements                     24                       # number of replacements
system.cpu.icache.ReadReq_hits::.switch_cpus.inst      1197429                       # number of ReadReq hits
system.cpu.icache.ReadReq_hits::total         1197429                       # number of ReadReq hits
system.cpu.icache.ReadReq_misses::.switch_cpus.inst           38                       # number of ReadReq misses
system.cpu.icache.ReadReq_misses::total            38                       # number of ReadReq misses
system.cpu.icache.ReadReq_miss_latency::.switch_cpus.inst      2476000                       # number of ReadReq miss cycles
system.cpu.icache.ReadReq_miss_latency::total      2476000                       # number of ReadReq miss cycles
system.cpu.icache.ReadReq_accesses::.switch_cpus.inst      1197467                       # number of ReadReq accesses(hits+misses)
system.cpu.icache.ReadReq_accesses::total      1197467                       # number of ReadReq accesses(hits+misses)
system.cpu.icache.ReadReq_miss_rate::.switch_cpus.inst     0.000032                       # miss rate for ReadReq accesses
system.cpu.icache.ReadReq_miss_rate::total     0.000032                       # miss rate for ReadReq accesses
system.cpu.icache.ReadReq_avg_miss_latency::.switch_cpus.inst 65157.894737                       # average ReadReq miss latency
system.cpu.icache.ReadReq_avg_miss_latency::total 65157.894737                       # average ReadReq miss latency
system.cpu.icache.ReadReq_mshr_hits::.switch_cpus.inst           11                       # number of ReadReq MSHR hits
system.cpu.icache.ReadReq_mshr_hits::total           11                       # number of ReadReq MSHR hits
system.cpu.icache.ReadReq_mshr_misses::.switch_cpus.inst           27                       # number of ReadReq MSHR misses
system.cpu.icache.ReadReq_mshr_misses::total           27                       # number of ReadReq MSHR misses
system.cpu.icache.ReadReq_mshr_miss_latency::.switch_cpus.inst      1866500                       # number of ReadReq MSHR miss cycles
system.cpu.icache.ReadReq_mshr_miss_latency::total      1866500                       # number of ReadReq MSHR miss cycles
system.cpu.icache.ReadReq_mshr_miss_rate::.switch_cpus.inst     0.000023                       # mshr miss rate for ReadReq accesses
system.cpu.icache.ReadReq_mshr_miss_rate::total     0.000023                       # mshr miss rate for ReadReq accesses
system.cpu.icache.ReadReq_avg_mshr_miss_latency::.switch_cpus.inst 69129.629630                       # average ReadReq mshr miss latency
system.cpu.icache.ReadReq_avg_mshr_miss_latency::total 69129.629630                       # average ReadReq mshr miss latency
system.cpu.icache.power_state.pwrStateResidencyTicks::UNDEFINED   3894782000                       # Cumulative time (in ticks) in various power states
system.cpu.icache.tags.tagsinuse           973.638582                       # Cycle average of tags in use
system.cpu.icache.tags.total_refs             2333600                       # Total number of references to valid blocks.
system.cpu.icache.tags.sampled_refs               999                       # Sample count of references to valid blocks.
system.cpu.icache.tags.avg_refs           2335.935936                       # Average number of references to valid blocks.
system.cpu.icache.tags.warmup_cycle                 0                       # Cycle when the warmup percentage was hit.
system.cpu.icache.tags.occ_blocks::.cpu.inst   952.284140                       # Average occupied blocks per requestor
system.cpu.icache.tags.occ_blocks::.switch_cpus.inst    21.354442                       # Average occupied blocks per requestor
system.cpu.icache.tags.occ_percent::.cpu.inst     0.929965                       # Average percentage of cache occupancy
system.cpu.icache.tags.occ_percent::.switch_cpus.inst     0.020854                       # Average percentage of cache occupancy
system.cpu.icache.tags.occ_percent::total     0.950819                       # Average percentage of cache occupancy
system.cpu.icache.tags.occ_task_id_blocks::1024          975                       # Occupied blocks per task id
system.cpu.icache.tags.age_task_id_blocks_1024::1            2                       # Occupied blocks per task id
system.cpu.icache.tags.age_task_id_blocks_1024::2            1                       # Occupied blocks per task id
system.cpu.icache.tags.age_task_id_blocks_1024::3          972                       # Occupied blocks per task id
system.cpu.icache.tags.occ_task_id_percent::1024     0.952148                       # Percentage of cache occupancy per task id
system.cpu.icache.tags.tag_accesses           2394961                       # Number of tag accesses
system.cpu.icache.tags.data_accesses          2394961                       # Number of data accesses
system.cpu.icache.tags.power_state.pwrStateResidencyTicks::UNDEFINED   3894782000                       # Cumulative time (in ticks) in various power states
system.cpu.interrupts.clk_domain.clock           8000                       # Clock period in ticks
system.cpu.itb.rdAccesses                           0                       # TLB accesses on read requests
system.cpu.itb.wrAccesses                           0                       # TLB accesses on write requests
system.cpu.itb.rdMisses                             0                       # TLB misses on read requests
system.cpu.itb.wrMisses                             0                       # TLB misses on write requests
system.cpu.itb.walker.power_state.pwrStateResidencyTicks::UNDEFINED   3894782000                       # Cumulative time (in ticks) in various power states
system.cpu.itb_walker_cache.blocked_cycles::no_mshrs            0                       # number of cycles access was blocked
system.cpu.itb_walker_cache.blocked_cycles::no_targets            0                       # number of cycles access was blocked
system.cpu.itb_walker_cache.blocked::no_mshrs            0                       # number of cycles access was blocked
system.cpu.itb_walker_cache.blocked::no_targets            0                       # number of cycles access was blocked
system.cpu.itb_walker_cache.avg_blocked_cycles::no_mshrs          nan                       # average number of cycles each access was blocked
system.cpu.itb_walker_cache.avg_blocked_cycles::no_targets          nan                       # average number of cycles each access was blocked
system.cpu.itb_walker_cache.replacements            0                       # number of replacements
system.cpu.itb_walker_cache.power_state.pwrStateResidencyTicks::UNDEFINED   3894782000                       # Cumulative time (in ticks) in various power states
system.cpu.itb_walker_cache.tags.tagsinuse            0                       # Cycle average of tags in use
system.cpu.itb_walker_cache.tags.total_refs            0                       # Total number of references to valid blocks.
system.cpu.itb_walker_cache.tags.sampled_refs            0                       # Sample count of references to valid blocks.
system.cpu.itb_walker_cache.tags.avg_refs          nan                       # Average number of references to valid blocks.
system.cpu.itb_walker_cache.tags.warmup_cycle            0                       # Cycle when the warmup percentage was hit.
system.cpu.itb_walker_cache.tags.tag_accesses            0                       # Number of tag accesses
system.cpu.itb_walker_cache.tags.data_accesses            0                       # Number of data accesses
system.cpu.itb_walker_cache.tags.power_state.pwrStateResidencyTicks::UNDEFINED   3894782000                       # Cumulative time (in ticks) in various power states
system.cpu.power_state.pwrStateResidencyTicks::OFF   2513008000                       # Cumulative time (in ticks) in various power states
system.cpu.thread_0.numInsts                        0                       # Number of Instructions committed
system.cpu.thread_0.numOps                          0                       # Number of Ops committed
system.cpu.thread_0.numMemRefs                      0                       # Number of Memory References
system.cpu_clk_domain.clock                       500                       # Clock period in ticks
system.cpu_voltage_domain.voltage                   1                       # Voltage in Volts
system.l2.demand_hits::.switch_cpus.inst            4                       # number of demand (read+write) hits
system.l2.demand_hits::.switch_cpus.data          283                       # number of demand (read+write) hits
system.l2.demand_hits::total                      287                       # number of demand (read+write) hits
system.l2.overall_hits::.switch_cpus.inst            4                       # number of overall hits
system.l2.overall_hits::.switch_cpus.data          283                       # number of overall hits
system.l2.overall_hits::total                     287                       # number of overall hits
system.l2.demand_misses::.switch_cpus.inst           23                       # number of demand (read+write) misses
system.l2.demand_misses::.switch_cpus.data         9361                       # number of demand (read+write) misses
system.l2.demand_misses::total                   9384                       # number of demand (read+write) misses
system.l2.overall_misses::.switch_cpus.inst           23                       # number of overall misses
system.l2.overall_misses::.switch_cpus.data         9361                       # number of overall misses
system.l2.overall_misses::total                  9384                       # number of overall misses
system.l2.demand_miss_latency::.switch_cpus.inst      1781500                       # number of demand (read+write) miss cycles
system.l2.demand_miss_latency::.switch_cpus.data    727131500                       # number of demand (read+write) miss cycles
system.l2.demand_miss_latency::total        728913000                       # number of demand (read+write) miss cycles
system.l2.overall_miss_latency::.switch_cpus.inst      1781500                       # number of overall miss cycles
system.l2.overall_miss_latency::.switch_cpus.data    727131500                       # number of overall miss cycles
system.l2.overall_miss_latency::total       728913000                       # number of overall miss cycles
system.l2.demand_accesses::.switch_cpus.inst           27                       # number of demand (read+write) accesses
system.l2.demand_accesses::.switch_cpus.data         9644                       # number of demand (read+write) accesses
system.l2.demand_accesses::total                 9671                       # number of demand (read+write) accesses
system.l2.overall_accesses::.switch_cpus.inst           27                       # number of overall (read+write) accesses
system.l2.overall_accesses::.switch_cpus.data         9644                       # number of overall (read+write) accesses
system.l2.overall_accesses::total                9671                       # number of overall (read+write) accesses
system.l2.demand_miss_rate::.switch_cpus.inst     0.851852                       # miss rate for demand accesses
system.l2.demand_miss_rate::.switch_cpus.data     0.970655                       # miss rate for demand accesses
system.l2.demand_miss_rate::total            0.970324                       # miss rate for demand accesses
system.l2.overall_miss_rate::.switch_cpus.inst     0.851852                       # miss rate for overall accesses
system.l2.overall_miss_rate::.switch_cpus.data     0.970655                       # miss rate for overall accesses
system.l2.overall_miss_rate::total           0.970324                       # miss rate for overall accesses
system.l2.demand_avg_miss_latency::.switch_cpus.inst 77456.521739                       # average overall miss latency
system.l2.demand_avg_miss_latency::.switch_cpus.data 77676.690525                       # average overall miss latency
system.l2.demand_avg_miss_latency::total 77676.150895                       # average overall miss latency
system.l2.overall_avg_miss_latency::.switch_cpus.inst 77456.521739                       # average overall miss latency
system.l2.overall_avg_miss_latency::.switch_cpus.data 77676.690525                       # average overall miss latency
system.l2.overall_avg_miss_latency::total 77676.150895                       # average overall miss latency
system.l2.blocked_cycles::no_mshrs                  0                       # number of cycles access was blocked
system.l2.blocked_cycles::no_targets                0                       # number of cycles access was blocked
system.l2.blocked::no_mshrs                         0                       # number of cycles access was blocked
system.l2.blocked::no_targets                       0                       # number of cycles access was blocked
system.l2.avg_blocked_cycles::no_mshrs            nan                       # average number of cycles each access was blocked
system.l2.avg_blocked_cycles::no_targets          nan                       # average number of cycles each access was blocked
system.l2.writebacks::.writebacks                3601                       # number of writebacks
system.l2.writebacks::total                      3601                       # number of writebacks
system.l2.demand_mshr_misses::.switch_cpus.inst           23                       # number of demand (read+write) MSHR misses
system.l2.demand_mshr_misses::.switch_cpus.data         9361                       # number of demand (read+write) MSHR misses
system.l2.demand_mshr_misses::total              9384                       # number of demand (read+write) MSHR misses
system.l2.overall_mshr_misses::.switch_cpus.inst           23                       # number of overall MSHR misses
system.l2.overall_mshr_misses::.switch_cpus.data         9361                       # number of overall MSHR misses
system.l2.overall_mshr_misses::total             9384                       # number of overall MSHR misses
system.l2.demand_mshr_miss_latency::.switch_cpus.inst      1551500                       # number of demand (read+write) MSHR miss cycles
system.l2.demand_mshr_miss_latency::.switch_cpus.data    633521500                       # number of demand (read+write) MSHR miss cycles
system.l2.demand_mshr_miss_latency::total    635073000                       # number of demand (read+write) MSHR miss cycles
system.l2.overall_mshr_miss_latency::.switch_cpus.inst      1551500                       # number of overall MSHR miss cycles
system.l2.overall_mshr_miss_latency::.switch_cpus.data    633521500                       # number of overall MSHR miss cycles
system.l2.overall_mshr_miss_latency::total    635073000                       # number of overall MSHR miss cycles
system.l2.demand_mshr_miss_rate::.switch_cpus.inst     0.851852                       # mshr miss rate for demand accesses
system.l2.demand_mshr_miss_rate::.switch_cpus.data     0.970655                       # mshr miss rate for demand accesses
system.l2.demand_mshr_miss_rate::total       0.970324                       # mshr miss rate for demand accesses
system.l2.overall_mshr_miss_rate::.switch_cpus.inst     0.851852                       # mshr miss rate for overall accesses
system.l2.overall_mshr_miss_rate::.switch_cpus.data     0.970655                       # mshr miss rate for overall accesses
system.l2.overall_mshr_miss_rate::total      0.970324                       # mshr miss rate for overall accesses
system.l2.demand_avg_mshr_miss_latency::.switch_cpus.inst 67456.521739                       # average overall mshr miss latency
system.l2.demand_avg_mshr_miss_latency::.switch_cpus.data 67676.690525                       # average overall mshr miss latency
system.l2.demand_avg_mshr_miss_latency::total 67676.150895                       # average overall mshr miss latency
system.l2.overall_avg_mshr_miss_latency::.switch_cpus.inst 67456.521739                       # average overall mshr miss latency
system.l2.overall_avg_mshr_miss_latency::.switch_cpus.data 67676.690525                       # average overall mshr miss latency
system.l2.overall_avg_mshr_miss_latency::total 67676.150895                       # average overall mshr miss latency
system.l2.replacements                           7678                       # number of replacements
system.l2.WritebackDirty_hits::.writebacks         9561                       # number of WritebackDirty hits
system.l2.WritebackDirty_hits::total             9561                       # number of WritebackDirty hits
system.l2.WritebackDirty_accesses::.writebacks         9561                       # number of WritebackDirty accesses(hits+misses)
system.l2.WritebackDirty_accesses::total         9561                       # number of WritebackDirty accesses(hits+misses)
system.l2.WritebackClean_hits::.writebacks           24                       # number of WritebackClean hits
system.l2.WritebackClean_hits::total               24                       # number of WritebackClean hits
system.l2.WritebackClean_accesses::.writebacks           24                       # number of WritebackClean accesses(hits+misses)
[...]
system.switch_cpus.commit.committedInstType_0::FloatDiv            0      0.00%     55.95% # Class of committed instruction
system.switch_cpus.commit.committedInstType_0::FloatMisc            0      0.00%     55.95% # Class of committed instruction
system.switch_cpus.commit.committedInstType_0::FloatSqrt            0      0.00%     55.95% # Class of committed instruction
system.switch_cpus.commit.committedInstType_0::SimdAdd            0      0.00%     55.95% # Class of committed instruction
system.switch_cpus.commit.committedInstType_0::SimdAddAcc            0      0.00%     55.95% # Class of committed instruction
system.switch_cpus.commit.committedInstType_0::SimdAlu       894998      5.08%     61.03% # Class of committed instruction
system.switch_cpus.commit.committedInstType_0::SimdCmp            0      0.00%     61.03% # Class of committed instruction
system.switch_cpus.commit.committedInstType_0::SimdCvt            0      0.00%     61.03% # Class of committed instruction
system.switch_cpus.commit.committedInstType_0::SimdMisc       894944      5.08%     66.11% # Class of committed instruction
system.switch_cpus.commit.committedInstType_0::SimdMult            0      0.00%     66.11% # Class of committed instruction
system.switch_cpus.commit.committedInstType_0::SimdMultAcc            0      0.00%     66.11% # Class of committed instruction
system.switch_cpus.commit.committedInstType_0::SimdShift            0      0.00%     66.11% # Class of committed instruction
system.switch_cpus.commit.committedInstType_0::SimdShiftAcc            0      0.00%     66.11% # Class of committed instruction
system.switch_cpus.commit.committedInstType_0::SimdDiv            0      0.00%     66.11% # Class of committed instruction
system.switch_cpus.commit.committedInstType_0::SimdSqrt            0      0.00%     66.11% # Class of committed instruction
system.switch_cpus.commit.committedInstType_0::SimdFloatAdd      1491554      8.47%     74.58% # Class of committed instruction
system.switch_cpus.commit.committedInstType_0::SimdFloatAlu            0      0.00%     74.58% # Class of committed instruction
system.switch_cpus.commit.committedInstType_0::SimdFloatCmp            0      0.00%     74.58% # Class of committed instruction
system.switch_cpus.commit.committedInstType_0::SimdFloatCvt       745785      4.23%     78.82% # Class of committed instruction
system.switch_cpus.commit.committedInstType_0::SimdFloatDiv            0      0.00%     78.82% # Class of committed instruction
system.switch_cpus.commit.committedInstType_0::SimdFloatMisc            0      0.00%     78.82% # Class of committed instruction
system.switch_cpus.commit.committedInstType_0::SimdFloatMult      1044072      5.93%     84.74% # Class of committed instruction
system.switch_cpus.commit.committedInstType_0::SimdFloatMultAcc            0      0.00%     84.74% # Class of committed instruction
system.switch_cpus.commit.committedInstType_0::SimdFloatSqrt            0      0.00%     84.74% # Class of committed instruction
system.switch_cpus.commit.committedInstType_0::SimdReduceAdd            0      0.00%     84.74% # Class of committed instruction
system.switch_cpus.commit.committedInstType_0::SimdReduceAlu            0      0.00%     84.74% # Class of committed instruction
system.switch_cpus.commit.committedInstType_0::SimdReduceCmp            0      0.00%     84.74% # Class of committed instruction
system.switch_cpus.commit.committedInstType_0::SimdFloatReduceAdd            0      0.00%     84.74% # Class of committed instruction
system.switch_cpus.commit.committedInstType_0::SimdFloatReduceCmp            0      0.00%     84.74% # Class of committed instruction
system.switch_cpus.commit.committedInstType_0::SimdAes            0      0.00%     84.74% # Class of committed instruction
system.switch_cpus.commit.committedInstType_0::SimdAesMix            0      0.00%     84.74% # Class of committed instruction
system.switch_cpus.commit.committedInstType_0::SimdSha1Hash            0      0.00%     84.74% # Class of committed instruction
system.switch_cpus.commit.committedInstType_0::SimdSha1Hash2            0      0.00%     84.74% # Class of committed instruction
system.switch_cpus.commit.committedInstType_0::SimdSha256Hash            0      0.00%     84.74% # Class of committed instruction
system.switch_cpus.commit.committedInstType_0::SimdSha256Hash2            0      0.00%     84.74% # Class of committed instruction
system.switch_cpus.commit.committedInstType_0::SimdShaSigma2            0      0.00%     84.74% # Class of committed instruction
system.switch_cpus.commit.committedInstType_0::SimdShaSigma3            0      0.00%     84.74% # Class of committed instruction
system.switch_cpus.commit.committedInstType_0::SimdPredAlu            0      0.00%     84.74% # Class of committed instruction
system.switch_cpus.commit.committedInstType_0::MemRead       597611      3.39%     88.14% # Class of committed instruction
system.switch_cpus.commit.committedInstType_0::MemWrite       448689      2.55%     90.68% # Class of committed instruction
system.switch_cpus.commit.committedInstType_0::FloatMemRead      1640704      9.32%    100.00% # Class of committed instruction
system.switch_cpus.commit.committedInstType_0::FloatMemWrite           81      0.00%    100.00% # Class of committed instruction
system.switch_cpus.commit.committedInstType_0::IprAccess            0      0.00%    100.00% # Class of committed instruction
system.switch_cpus.commit.committedInstType_0::InstPrefetch            0      0.00%    100.00% # Class of committed instruction
system.switch_cpus.commit.committedInstType_0::total     17613021                       # Class of committed instruction
system.switch_cpus.commit.commitEligibleSamples       895169                       # number cycles where commit BW limit reached
system.switch_cpus.decode.idleCycles           567739                       # Number of cycles decode is idle
system.switch_cpus.decode.blockedCycles       2246829                       # Number of cycles decode is blocked
system.switch_cpus.decode.runCycles            916330                       # Number of cycles decode is running
system.switch_cpus.decode.unblockCycles       1294536                       # Number of cycles decode is unblocking
system.switch_cpus.decode.squashCycles            282                       # Number of cycles decode is squashing
system.switch_cpus.decode.branchResolved       299786                       # Number of times decode resolved a  branch
system.switch_cpus.decode.branchMispred            29                       # Number of times decode detected a branch misprediction
system.switch_cpus.decode.decodedInsts       17648446                       # Number of instructions handled by decode
system.switch_cpus.decode.squashedInsts           124                       # Number of squashed instructions handled by decode
system.switch_cpus.dtb.rdAccesses             2241741                       # TLB accesses on read requests
system.switch_cpus.dtb.wrAccesses              449566                       # TLB accesses on write requests
system.switch_cpus.dtb.rdMisses                    19                       # TLB misses on read requests
system.switch_cpus.dtb.wrMisses                   339                       # TLB misses on write requests
system.switch_cpus.dtb.walker.power_state.pwrStateResidencyTicks::UNDEFINED   3894782000                       # Cumulative time (in ticks) in various power states
system.switch_cpus.fetch.icacheStallCycles      1198049                       # Number of cycles fetch is stalled on an Icache miss
system.switch_cpus.fetch.insts               10023297                       # Number of instructions fetch has processed
system.switch_cpus.fetch.branches             1048203                       # Number of branches that fetch encountered
system.switch_cpus.fetch.predictedBranches       599057                       # Number of branches that fetch has predicted taken
system.switch_cpus.fetch.cycles               3827286                       # Number of cycles fetch has run and was not squashing or blocked
system.switch_cpus.fetch.squashCycles             620                       # Number of cycles fetch has spent squashing
system.switch_cpus.fetch.miscStallCycles           10                       # Number of cycles fetch has spent waiting on interrupts,or bad addresses, or out of MSHRs
system.switch_cpus.fetch.pendingTrapStallCycles           67                       # Number of stall cycles due to pending traps
system.switch_cpus.fetch.cacheLines           1197467                       # Number of cache lines fetched
system.switch_cpus.fetch.icacheSquashes            99                       # Number of outstanding Icache misses that were squashed
system.switch_cpus.fetch.nisnDist::samples      5025722                       # Number of instructions fetched each cycle (Total)
system.switch_cpus.fetch.nisnDist::mean      3.512842                       # Number of instructions fetched each cycle (Total)
system.switch_cpus.fetch.nisnDist::stdev     3.573678                       # Number of instructions fetched each cycle (Total)
system.switch_cpus.fetch.nisnDist::underflows            0      0.00%      0.00% # Number of instructions fetched each cycle (Total)
system.switch_cpus.fetch.nisnDist::0          2075085     41.29%     41.29% # Number of instructions fetched each cycle (Total)
system.switch_cpus.fetch.nisnDist::1           259652      5.17%     46.46% # Number of instructions fetched each cycle (Total)
system.switch_cpus.fetch.nisnDist::2           372658      7.42%     53.87% # Number of instructions fetched each cycle (Total)
system.switch_cpus.fetch.nisnDist::3           110752      2.20%     56.07% # Number of instructions fetched each cycle (Total)
system.switch_cpus.fetch.nisnDist::4           112857      2.25%     58.32% # Number of instructions fetched each cycle (Total)
system.switch_cpus.fetch.nisnDist::5           110962      2.21%     60.53% # Number of instructions fetched each cycle (Total)
system.switch_cpus.fetch.nisnDist::6           149507      2.97%     63.50% # Number of instructions fetched each cycle (Total)
system.switch_cpus.fetch.nisnDist::7           259930      5.17%     68.67% # Number of instructions fetched each cycle (Total)
system.switch_cpus.fetch.nisnDist::8          1574319     31.33%    100.00% # Number of instructions fetched each cycle (Total)
system.switch_cpus.fetch.nisnDist::overflows            0      0.00%    100.00% # Number of instructions fetched each cycle (Total)
system.switch_cpus.fetch.nisnDist::min_value            0                       # Number of instructions fetched each cycle (Total)
system.switch_cpus.fetch.nisnDist::max_value            8                       # Number of instructions fetched each cycle (Total)
system.switch_cpus.fetch.nisnDist::total      5025722                       # Number of instructions fetched each cycle (Total)
system.switch_cpus.fetch.branchRate          0.208555                       # Number of branch fetches per cycle
system.switch_cpus.fetch.rate                1.994283                       # Number of inst fetches per cycle
system.switch_cpus.itb.rdAccesses                   0                       # TLB accesses on read requests
system.switch_cpus.itb.wrAccesses             1197478                       # TLB accesses on write requests
system.switch_cpus.itb.rdMisses                     0                       # TLB misses on read requests
system.switch_cpus.itb.wrMisses                    25                       # TLB misses on write requests
system.switch_cpus.itb.walker.power_state.pwrStateResidencyTicks::UNDEFINED   3894782000                       # Cumulative time (in ticks) in various power states
system.switch_cpus.lsq0.forwLoads              149631                       # Number of loads that had data forwarded from stores
system.switch_cpus.lsq0.squashedLoads            3666                       # Number of loads squashed
system.switch_cpus.lsq0.ignoredResponses            0                       # Number of memory responses ignored because the instruction is squashed
system.switch_cpus.lsq0.memOrderViolation            9                       # Number of memory ordering violations
system.switch_cpus.lsq0.squashedStores           1230                       # Number of stores squashed
system.switch_cpus.lsq0.rescheduledLoads           27                       # Number of loads that were rescheduled
system.switch_cpus.lsq0.blockedByCache             79                       # Number of times an access to memory failed due to the cache being blocked
system.switch_cpus.power_state.pwrStateResidencyTicks::OFF   3894782000                       # Cumulative time (in ticks) in various power states
system.switch_cpus.rename.squashCycles            282                       # Number of cycles rename is squashing
system.switch_cpus.rename.idleCycles           938083                       # Number of cycles rename is idle
system.switch_cpus.rename.blockCycles            9400                       # Number of cycles rename is blocking
system.switch_cpus.rename.serializeStallCycles            0                       # count of cycles rename stalledfor serializing inst
system.switch_cpus.rename.runCycles           1840450                       # Number of cycles rename is running
system.switch_cpus.rename.unblockCycles       2237501                       # Number of cycles rename is unblocking
system.switch_cpus.rename.renamedInsts       17646929                       # Number of instructions processed by rename
system.switch_cpus.rename.ROBFullEvents           140                       # Number of times rename has blocked due to ROB full
system.switch_cpus.rename.IQFullEvents        1847016                       # Number of times rename has blocked due to IQ full
system.switch_cpus.rename.SQFullEvents          93457                       # Number of times rename has blocked due to SQ full
system.switch_cpus.rename.renamedOperands     19741266                       # Number of destination operands rename has renamed
system.switch_cpus.rename.lookups            39631997                       # Number of register rename lookups that rename has made
system.switch_cpus.rename.intLookups         16761433                       # Number of integer rename lookups
system.switch_cpus.rename.fpLookups          12994734                       # Number of floating rename lookups
system.switch_cpus.rename.committedMaps      19703464                       # Number of HB maps that are committed
system.switch_cpus.rename.undoneMaps            37654                       # Number of HB maps that are undone due to squashing
system.switch_cpus.rename.serializing               0                       # count of serializing insts renamed
system.switch_cpus.rename.tempSerializing            0                       # count of temporary serializing insts renamed
system.switch_cpus.rename.skidInsts           5211471                       # count of insts added to the skid buffer
system.switch_cpus.rob.reads                 21763558                       # The number of ROB reads
system.switch_cpus.rob.writes                35280186                       # The number of ROB writes
system.switch_cpus.thread_0.numInsts         10000000                       # Number of Instructions committed
system.switch_cpus.thread_0.numOps           17613021                       # Number of Ops committed
system.switch_cpus.thread_0.numMemRefs              0                       # Number of Memory References
system.tol2bus.trans_dist::ReadResp               253                       # Transaction distribution
system.tol2bus.trans_dist::WritebackDirty        13162                       # Transaction distribution
system.tol2bus.trans_dist::WritebackClean           24                       # Transaction distribution
system.tol2bus.trans_dist::CleanEvict            4159                       # Transaction distribution
system.tol2bus.trans_dist::ReadExReq             9418                       # Transaction distribution
system.tol2bus.trans_dist::ReadExResp            9417                       # Transaction distribution
system.tol2bus.trans_dist::ReadCleanReq            27                       # Transaction distribution
system.tol2bus.trans_dist::ReadSharedReq          226                       # Transaction distribution
system.tol2bus.pkt_count_system.cpu.icache.mem_side_port::system.l2.cpu_side_port           78                       # Packet count per connected requestor and responder (bytes)
system.tol2bus.pkt_count_system.cpu.dcache.mem_side_port::system.l2.cpu_side_port        28930                       # Packet count per connected requestor and responder (bytes)
system.tol2bus.pkt_count::total                 29008                       # Packet count per connected requestor and responder (bytes)
system.tol2bus.pkt_size_system.cpu.icache.mem_side_port::system.l2.cpu_side_port         3264                       # Cumulative packet size per connected requestor and responder (bytes)
system.tol2bus.pkt_size_system.cpu.dcache.mem_side_port::system.l2.cpu_side_port      1229056                       # Cumulative packet size per connected requestor and responder (bytes)
system.tol2bus.pkt_size::total                1232320                       # Cumulative packet size per connected requestor and responder (bytes)
system.tol2bus.snoops                            7678                       # Total snoops (count)
system.tol2bus.snoopTraffic                    230464                       # Total snoop traffic (bytes)
system.tol2bus.snoop_fanout::samples            17349                       # Request fanout histogram
system.tol2bus.snoop_fanout::mean            0.057064                       # Request fanout histogram
system.tol2bus.snoop_fanout::stdev           0.231971                       # Request fanout histogram
system.tol2bus.snoop_fanout::underflows             0      0.00%      0.00% # Request fanout histogram
system.tol2bus.snoop_fanout::0                  16359     94.29%     94.29% # Request fanout histogram
system.tol2bus.snoop_fanout::1                    990      5.71%    100.00% # Request fanout histogram
system.tol2bus.snoop_fanout::2                      0      0.00%    100.00% # Request fanout histogram
system.tol2bus.snoop_fanout::3                      0      0.00%    100.00% # Request fanout histogram
system.tol2bus.snoop_fanout::4                      0      0.00%    100.00% # Request fanout histogram
system.tol2bus.snoop_fanout::overflows              0      0.00%    100.00% # Request fanout histogram
system.tol2bus.snoop_fanout::min_value              0                       # Request fanout histogram
system.tol2bus.snoop_fanout::max_value              1                       # Request fanout histogram
system.tol2bus.snoop_fanout::total              17349                       # Request fanout histogram
system.tol2bus.power_state.pwrStateResidencyTicks::UNDEFINED   3894782000                       # Cumulative time (in ticks) in various power states
system.tol2bus.reqLayer0.occupancy           19254000                       # Layer occupancy (ticks)
system.tol2bus.reqLayer0.utilization              0.8                       # Layer utilization (%)
system.tol2bus.respLayer0.occupancy             40500                       # Layer occupancy (ticks)
system.tol2bus.respLayer0.utilization             0.0                       # Layer utilization (%)
system.tol2bus.respLayer1.occupancy          14464500                       # Layer occupancy (ticks)
system.tol2bus.respLayer1.utilization             0.6                       # Layer utilization (%)
system.voltage_domain.voltage                       1                       # Voltage in Volts

---------- End Simulation Statistics   ----------
